# generated using pymatgen
data_Ti3Fe2Cu(PO4)6
_symmetry_space_group_name_H-M   'P 1'
_cell_length_a   8.52973579
_cell_length_b   8.52973579
_cell_length_c   8.52973579
_cell_angle_alpha   61.18826607
_cell_angle_beta   61.18826607
_cell_angle_gamma   61.18826607
_symmetry_Int_Tables_number   1
_chemical_formula_structural   Ti3Fe2Cu(PO4)6
_chemical_formula_sum   'Ti3 Fe2 Cu1 P6 O24'
_cell_volume   450.55572544
_cell_formula_units_Z   1
loop_
 _symmetry_equiv_pos_site_id
 _symmetry_equiv_pos_as_xyz
  1  'x, y, z'
loop_
 _atom_site_type_symbol
 _atom_site_label
 _atom_site_symmetry_multiplicity
 _atom_site_fract_x
 _atom_site_fract_y
 _atom_site_fract_z
 _atom_site_occupancy
  Ti  Ti0  1  0.857797  0.857797  0.857797  1
  Ti  Ti1  1  0.644686  0.644686  0.644686  1
  Ti  Ti2  1  0.354826  0.354826  0.354826  1
  Fe  Fe3  1  0.003693  0.003693  0.003693  1
  Fe  Fe4  1  0.501166  0.501166  0.501166  1
  Cu  Cu5  1  0.145156  0.145156  0.145156  1
  P  P6  1  0.954405  0.247938  0.542546  1
  P  P7  1  0.542546  0.954405  0.247938  1
  P  P8  1  0.749377  0.456702  0.044395  1
  P  P9  1  0.456702  0.044395  0.749377  1
  P  P10  1  0.044395  0.749377  0.456702  1
  P  P11  1  0.247938  0.542546  0.954405  1
  O  O12  1  0.885903  0.673335  0.512800  1
  O  O13  1  0.673335  0.512800  0.885903  1
  O  O14  1  0.942214  0.090191  0.742102  1
  O  O15  1  0.512800  0.885903  0.673335  1
  O  O16  1  0.981528  0.186312  0.391787  1
  O  O17  1  0.759464  0.411269  0.567705  1
  O  O18  1  0.742102  0.942214  0.090191  1
  O  O19  1  0.567705  0.759464  0.411269  1
  O  O20  1  0.814702  0.620063  0.998055  1
  O  O21  1  0.411269  0.567705  0.759464  1
  O  O22  1  0.903117  0.264367  0.051322  1
  O  O23  1  0.620063  0.998055  0.814702  1
  O  O24  1  0.391787  0.981528  0.186312  1
  O  O25  1  0.090191  0.742102  0.942214  1
  O  O26  1  0.586505  0.447623  0.238641  1
  O  O27  1  0.186312  0.391787  0.981528  1
  O  O28  1  0.447623  0.238641  0.586505  1
  O  O29  1  0.264367  0.051322  0.903117  1
  O  O30  1  0.238641  0.586505  0.447623  1
  O  O31  1  0.998055  0.814702  0.620063  1
  O  O32  1  0.496066  0.119926  0.312317  1
  O  O33  1  0.051322  0.903117  0.264367  1
  O  O34  1  0.312317  0.496066  0.119926  1
  O  O35  1  0.119926  0.312317  0.496066  1
