# generated using pymatgen
data_Hf3N4
_symmetry_space_group_name_H-M   'P 1'
_cell_length_a   6.41541906
_cell_length_b   6.41541906
_cell_length_c   6.41541906
_cell_angle_alpha   60.00000000
_cell_angle_beta   60.00000000
_cell_angle_gamma   60.00000000
_symmetry_Int_Tables_number   1
_chemical_formula_structural   Hf3N4
_chemical_formula_sum   'Hf6 N8'
_cell_volume   186.70678126
_cell_formula_units_Z   2
loop_
 _symmetry_equiv_pos_site_id
 _symmetry_equiv_pos_as_xyz
  1  'x, y, z'
loop_
 _atom_site_type_symbol
 _atom_site_label
 _atom_site_symmetry_multiplicity
 _atom_site_fract_x
 _atom_site_fract_y
 _atom_site_fract_z
 _atom_site_occupancy
  Hf  Hf0  1  0.625000  0.625000  0.125000  1
  Hf  Hf1  1  0.125000  0.625000  0.625000  1
  Hf  Hf2  1  0.250000  0.250000  0.250000  1
  Hf  Hf3  1  0.625000  0.625000  0.625000  1
  Hf  Hf4  1  1.000000  1.000000  1.000000  1
  Hf  Hf5  1  0.625000  0.125000  0.625000  1
  N  N6  1  0.867223  0.867223  0.398332  1
  N  N7  1  0.867223  0.867223  0.867223  1
  N  N8  1  0.867223  0.398332  0.867223  1
  N  N9  1  0.398332  0.867223  0.867223  1
  N  N10  1  0.851668  0.382777  0.382777  1
  N  N11  1  0.382777  0.851668  0.382777  1
  N  N12  1  0.382777  0.382777  0.851668  1
  N  N13  1  0.382777  0.382777  0.382777  1
