# generated using pymatgen
data_LiFe2F5
_symmetry_space_group_name_H-M   'P 1'
_cell_length_a   5.56921169
_cell_length_b   5.56921169
_cell_length_c   10.39088151
_cell_angle_alpha   90.00000000
_cell_angle_beta   90.00000000
_cell_angle_gamma   138.22371334
_symmetry_Int_Tables_number   1
_chemical_formula_structural   LiFe2F5
_chemical_formula_sum   'Li2 Fe4 F10'
_cell_volume   214.71383992
_cell_formula_units_Z   2
loop_
 _symmetry_equiv_pos_site_id
 _symmetry_equiv_pos_as_xyz
  1  'x, y, z'
loop_
 _atom_site_type_symbol
 _atom_site_label
 _atom_site_symmetry_multiplicity
 _atom_site_fract_x
 _atom_site_fract_y
 _atom_site_fract_z
 _atom_site_occupancy
  Li  Li0  1  0.819699  0.180301  0.250000  1
  Li  Li1  1  0.180301  0.819699  0.750000  1
  Fe  Fe2  1  0.863834  0.136166  0.569296  1
  Fe  Fe3  1  0.863834  0.136166  0.930704  1
  Fe  Fe4  1  0.136166  0.863834  0.069296  1
  Fe  Fe5  1  0.136166  0.863834  0.430704  1
  F  F6  1  0.944530  0.055470  0.114923  1
  F  F7  1  0.681359  0.318641  0.065138  1
  F  F8  1  0.944530  0.055470  0.385077  1
  F  F9  1  0.681359  0.318641  0.434862  1
  F  F10  1  0.767451  0.232549  0.750000  1
  F  F11  1  0.232549  0.767451  0.250000  1
  F  F12  1  0.055470  0.944530  0.614923  1
  F  F13  1  0.055470  0.944530  0.885077  1
  F  F14  1  0.318641  0.681359  0.565138  1
  F  F15  1  0.318641  0.681359  0.934862  1
