# generated using pymatgen
data_Li2NiSnO4
_symmetry_space_group_name_H-M   'P 1'
_cell_length_a   6.08851066
_cell_length_b   6.08851066
_cell_length_c   6.08851066
_cell_angle_alpha   119.58861318
_cell_angle_beta   118.74844044
_cell_angle_gamma   91.44779151
_symmetry_Int_Tables_number   1
_chemical_formula_structural   Li2NiSnO4
_chemical_formula_sum   'Li4 Ni2 Sn2 O8'
_cell_volume   161.53400686
_cell_formula_units_Z   2
loop_
 _symmetry_equiv_pos_site_id
 _symmetry_equiv_pos_as_xyz
  1  'x, y, z'
loop_
 _atom_site_type_symbol
 _atom_site_label
 _atom_site_symmetry_multiplicity
 _atom_site_fract_x
 _atom_site_fract_y
 _atom_site_fract_z
 _atom_site_occupancy
  Li  Li0  1  1.000000  0.500000  0.000000  1
  Li  Li1  1  0.000000  0.500000  0.500000  1
  Li  Li2  1  0.000000  0.000000  0.500000  1
  Li  Li3  1  0.500000  0.500000  0.000000  1
  Ni  Ni4  1  0.500000  0.500000  0.500000  1
  Ni  Ni5  1  0.500000  0.000000  0.000000  1
  Sn  Sn6  1  0.500000  0.000000  0.500000  1
  Sn  Sn7  1  0.000000  0.000000  0.000000  1
  O  O8  1  0.744589  0.758138  0.986451  1
  O  O9  1  0.750471  0.238599  0.988128  1
  O  O10  1  0.271687  0.758138  0.513549  1
  O  O11  1  0.750471  0.762343  0.511872  1
  O  O12  1  0.249529  0.237657  0.488128  1
  O  O13  1  0.728313  0.241862  0.486451  1
  O  O14  1  0.249529  0.761401  0.011872  1
  O  O15  1  0.255411  0.241862  0.013549  1
