# generated using pymatgen
data_LiTi2V3O12
_symmetry_space_group_name_H-M   'P 1'
_cell_length_a   9.00573099
_cell_length_b   9.14654785
_cell_length_c   15.47050368
_cell_angle_alpha   90.00000000
_cell_angle_beta   125.16698947
_cell_angle_gamma   90.00000000
_symmetry_Int_Tables_number   1
_chemical_formula_structural   LiTi2V3O12
_chemical_formula_sum   'Li4 Ti8 V12 O48'
_cell_volume   1041.73224632
_cell_formula_units_Z   4
loop_
 _symmetry_equiv_pos_site_id
 _symmetry_equiv_pos_as_xyz
  1  'x, y, z'
loop_
 _atom_site_type_symbol
 _atom_site_label
 _atom_site_symmetry_multiplicity
 _atom_site_fract_x
 _atom_site_fract_y
 _atom_site_fract_z
 _atom_site_occupancy
  Li  Li0  1  0.002139  0.222269  0.811179  1
  Li  Li1  1  0.997861  0.722269  0.688821  1
  Li  Li2  1  0.002139  0.277731  0.311179  1
  Li  Li3  1  0.997861  0.777731  0.188821  1
  Ti  Ti4  1  0.628689  0.480627  0.380551  1
  Ti  Ti5  1  0.371311  0.980627  0.119449  1
  Ti  Ti6  1  0.135838  0.533920  0.884382  1
  Ti  Ti7  1  0.864162  0.033920  0.615618  1
  Ti  Ti8  1  0.135838  0.966080  0.384382  1
  Ti  Ti9  1  0.864162  0.466080  0.115618  1
  Ti  Ti10  1  0.628689  0.019373  0.880551  1
  Ti  Ti11  1  0.371311  0.519373  0.619449  1
  V  V12  1  0.542981  0.751205  0.512899  1
  V  V13  1  0.252226  0.619154  0.144571  1
  V  V14  1  0.971908  0.890661  0.858943  1
  V  V15  1  0.747774  0.119154  0.355429  1
  V  V16  1  0.028092  0.390661  0.641057  1
  V  V17  1  0.457019  0.251205  0.987101  1
  V  V18  1  0.542981  0.748795  0.012899  1
  V  V19  1  0.971908  0.609339  0.358943  1
  V  V20  1  0.252226  0.880846  0.644571  1
  V  V21  1  0.028092  0.109339  0.141057  1
  V  V22  1  0.747774  0.380846  0.855429  1
  V  V23  1  0.457019  0.248795  0.487101  1
  O  O24  1  0.633364  0.122094  0.557599  1
  O  O25  1  0.185523  0.103466  0.109642  1
  O  O26  1  0.476081  0.337292  0.395838  1
  O  O27  1  0.906165  0.416160  0.827352  1
  O  O28  1  0.532442  0.630757  0.422648  1
  O  O29  1  0.282735  0.806321  0.154915  1
  O  O30  1  0.163161  0.565529  0.015203  1
  O  O31  1  0.909002  0.017797  0.758978  1
  O  O32  1  0.995022  0.715624  0.820066  1
  O  O33  1  0.758456  0.834751  0.582564  1
  O  O34  1  0.455182  0.525487  0.234555  1
  O  O35  1  0.544818  0.025487  0.265445  1
  O  O36  1  0.817558  0.441317  0.534967  1
  O  O37  1  0.182442  0.941317  0.965033  1
  O  O38  1  0.241544  0.334751  0.917436  1
  O  O39  1  0.004978  0.215624  0.679934  1
  O  O40  1  0.836839  0.065529  0.484797  1
  O  O41  1  0.090998  0.517797  0.741022  1
  O  O42  1  0.717265  0.306321  0.345085  1
  O  O43  1  0.467558  0.130757  0.077352  1
  O  O44  1  0.523919  0.837292  0.104162  1
  O  O45  1  0.814477  0.603466  0.390358  1
  O  O46  1  0.093835  0.916160  0.672648  1
  O  O47  1  0.366636  0.622094  0.942401  1
  O  O48  1  0.633364  0.377906  0.057599  1
  O  O49  1  0.906165  0.083840  0.327352  1
  O  O50  1  0.185523  0.396534  0.609642  1
  O  O51  1  0.476081  0.162708  0.895838  1
  O  O52  1  0.532442  0.869243  0.922648  1
  O  O53  1  0.282735  0.693679  0.654915  1
  O  O54  1  0.909002  0.482203  0.258978  1
  O  O55  1  0.163161  0.934471  0.515203  1
  O  O56  1  0.995022  0.784376  0.320066  1
  O  O57  1  0.758456  0.665249  0.082564  1
  O  O58  1  0.817558  0.058683  0.034967  1
  O  O59  1  0.182442  0.558683  0.465033  1
  O  O60  1  0.455182  0.974513  0.734555  1
  O  O61  1  0.544818  0.474513  0.765445  1
  O  O62  1  0.241544  0.165249  0.417436  1
  O  O63  1  0.004978  0.284376  0.179934  1
  O  O64  1  0.090998  0.982203  0.241022  1
  O  O65  1  0.836839  0.434471  0.984797  1
  O  O66  1  0.717265  0.193679  0.845085  1
  O  O67  1  0.467558  0.369243  0.577352  1
  O  O68  1  0.093835  0.583840  0.172648  1
  O  O69  1  0.523919  0.662708  0.604162  1
  O  O70  1  0.814477  0.896534  0.890358  1
  O  O71  1  0.366636  0.877906  0.442401  1
