# generated using pymatgen
data_Na5Fe2P2(CO7)2
_symmetry_space_group_name_H-M   'P 1'
_cell_length_a   10.39082060
_cell_length_b   6.64418304
_cell_length_c   10.45977659
_cell_angle_alpha   90.00000000
_cell_angle_beta   119.48987120
_cell_angle_gamma   90.00000000
_symmetry_Int_Tables_number   1
_chemical_formula_structural   Na5Fe2P2(CO7)2
_chemical_formula_sum   'Na10 Fe4 P4 C4 O28'
_cell_volume   628.57057590
_cell_formula_units_Z   2
loop_
 _symmetry_equiv_pos_site_id
 _symmetry_equiv_pos_as_xyz
  1  'x, y, z'
loop_
 _atom_site_type_symbol
 _atom_site_label
 _atom_site_symmetry_multiplicity
 _atom_site_fract_x
 _atom_site_fract_y
 _atom_site_fract_z
 _atom_site_occupancy
  Na  Na0  1  0.906739  0.758424  0.819047  1
  Na  Na1  1  0.410089  0.749627  0.334935  1
  Na  Na2  1  0.248308  0.500304  0.987982  1
  Na  Na3  1  0.245970  0.997227  0.985725  1
  Na  Na4  1  0.764997  0.518837  0.497058  1
  Na  Na5  1  0.754030  0.497227  0.014275  1
  Na  Na6  1  0.751692  0.000304  0.012018  1
  Na  Na7  1  0.235003  0.018837  0.502942  1
  Na  Na8  1  0.093261  0.258424  0.180953  1
  Na  Na9  1  0.589911  0.249627  0.665065  1
  Fe  Fe10  1  0.538690  0.244666  0.186487  1
  Fe  Fe11  1  0.027643  0.242043  0.676206  1
  Fe  Fe12  1  0.461310  0.744666  0.813513  1
  Fe  Fe13  1  0.972357  0.742043  0.323794  1
  P  P14  1  0.602306  0.747591  0.182559  1
  P  P15  1  0.109177  0.750123  0.689847  1
  P  P16  1  0.397694  0.247591  0.817441  1
  P  P17  1  0.890823  0.250123  0.310153  1
  C  C18  1  0.916034  0.256290  0.860240  1
  C  C19  1  0.418319  0.245878  0.346603  1
  C  C20  1  0.083966  0.756290  0.139760  1
  C  C21  1  0.581681  0.745878  0.653397  1
  O  O22  1  0.148239  0.748318  0.060422  1
  O  O23  1  0.637142  0.729914  0.570020  1
  O  O24  1  0.336299  0.244892  0.202591  1
  O  O25  1  0.837941  0.266622  0.718067  1
  O  O26  1  0.059387  0.252510  0.921541  1
  O  O27  1  0.561206  0.262421  0.397121  1
  O  O28  1  0.515527  0.935475  0.190771  1
  O  O29  1  0.514852  0.559930  0.190434  1
  O  O30  1  0.041194  0.934630  0.725135  1
  O  O31  1  0.028279  0.563942  0.705258  1
  O  O32  1  0.397906  0.248869  0.967500  1
  O  O33  1  0.888724  0.263257  0.454587  1
  O  O34  1  0.277563  0.740105  0.819894  1
  O  O35  1  0.762159  0.740567  0.306655  1
  O  O36  1  0.722437  0.240105  0.180106  1
  O  O37  1  0.237841  0.240567  0.693345  1
  O  O38  1  0.602094  0.748869  0.032500  1
  O  O39  1  0.111276  0.763257  0.545413  1
  O  O40  1  0.484473  0.435475  0.809229  1
  O  O41  1  0.485148  0.059930  0.809566  1
  O  O42  1  0.971721  0.063942  0.294742  1
  O  O43  1  0.958806  0.434630  0.274865  1
  O  O44  1  0.940613  0.752510  0.078459  1
  O  O45  1  0.438794  0.762421  0.602879  1
  O  O46  1  0.663701  0.744892  0.797409  1
  O  O47  1  0.162059  0.766622  0.281933  1
  O  O48  1  0.851761  0.248318  0.939578  1
  O  O49  1  0.362858  0.229914  0.429980  1
