# generated using pymatgen
data_Li2MnFe3O8
_symmetry_space_group_name_H-M   'P 1'
_cell_length_a   8.41994525
_cell_length_b   8.41994525
_cell_length_c   8.41994525
_cell_angle_alpha   90.00000000
_cell_angle_beta   90.00000000
_cell_angle_gamma   90.00000000
_symmetry_Int_Tables_number   1
_chemical_formula_structural   Li2MnFe3O8
_chemical_formula_sum   'Li8 Mn4 Fe12 O32'
_cell_volume   596.93604408
_cell_formula_units_Z   4
loop_
 _symmetry_equiv_pos_site_id
 _symmetry_equiv_pos_as_xyz
  1  'x, y, z'
loop_
 _atom_site_type_symbol
 _atom_site_label
 _atom_site_symmetry_multiplicity
 _atom_site_fract_x
 _atom_site_fract_y
 _atom_site_fract_z
 _atom_site_occupancy
  Li  Li0  1  0.501060  0.501060  0.501060  1
  Li  Li1  1  0.748940  0.748940  0.748940  1
  Li  Li2  1  0.248940  0.751060  0.251060  1
  Li  Li3  1  0.001060  0.998940  0.498940  1
  Li  Li4  1  0.498940  0.001060  0.998940  1
  Li  Li5  1  0.251060  0.248940  0.751060  1
  Li  Li6  1  0.751060  0.251060  0.248940  1
  Li  Li7  1  0.998940  0.498940  0.001060  1
  Mn  Mn8  1  0.875000  0.625000  0.375000  1
  Mn  Mn9  1  0.375000  0.875000  0.625000  1
  Mn  Mn10  1  0.125000  0.125000  0.125000  1
  Mn  Mn11  1  0.625000  0.375000  0.875000  1
  Fe  Fe12  1  0.125000  0.625377  0.624623  1
  Fe  Fe13  1  0.375377  0.625000  0.874623  1
  Fe  Fe14  1  0.625377  0.624623  0.125000  1
  Fe  Fe15  1  0.125377  0.875377  0.875000  1
  Fe  Fe16  1  0.875377  0.875000  0.125377  1
  Fe  Fe17  1  0.625000  0.874623  0.375377  1
  Fe  Fe18  1  0.875000  0.125377  0.875377  1
  Fe  Fe19  1  0.624623  0.125000  0.625377  1
  Fe  Fe20  1  0.374623  0.124623  0.375000  1
  Fe  Fe21  1  0.874623  0.375377  0.625000  1
  Fe  Fe22  1  0.124623  0.375000  0.374623  1
  Fe  Fe23  1  0.375000  0.374623  0.124623  1
  O  O24  1  0.884832  0.615391  0.605582  1
  O  O25  1  0.105582  0.615168  0.384609  1
  O  O26  1  0.386428  0.613572  0.113572  1
  O  O27  1  0.365168  0.644418  0.634609  1
  O  O28  1  0.615391  0.605582  0.884832  1
  O  O29  1  0.136428  0.636428  0.863572  1
  O  O30  1  0.865391  0.634832  0.144418  1
  O  O31  1  0.644418  0.634609  0.365168  1
  O  O32  1  0.144418  0.865391  0.634832  1
  O  O33  1  0.365391  0.865168  0.855582  1
  O  O34  1  0.636428  0.863572  0.136428  1
  O  O35  1  0.115391  0.894418  0.115168  1
  O  O36  1  0.865168  0.855582  0.365391  1
  O  O37  1  0.886428  0.886428  0.886428  1
  O  O38  1  0.605582  0.884832  0.615391  1
  O  O39  1  0.384832  0.884609  0.394418  1
  O  O40  1  0.115168  0.115391  0.894418  1
  O  O41  1  0.894418  0.115168  0.115391  1
  O  O42  1  0.613572  0.113572  0.386428  1
  O  O43  1  0.634832  0.144418  0.865391  1
  O  O44  1  0.384609  0.105582  0.615168  1
  O  O45  1  0.863572  0.136428  0.636428  1
  O  O46  1  0.134609  0.134832  0.355582  1
  O  O47  1  0.355582  0.134609  0.134832  1
  O  O48  1  0.855582  0.365391  0.865168  1
  O  O49  1  0.634609  0.365168  0.644418  1
  O  O50  1  0.363572  0.363572  0.363572  1
  O  O51  1  0.884609  0.394418  0.384832  1
  O  O52  1  0.134832  0.355582  0.134609  1
  O  O53  1  0.113572  0.386428  0.613572  1
  O  O54  1  0.394418  0.384832  0.884609  1
  O  O55  1  0.615168  0.384609  0.105582  1
