# generated using pymatgen
data_TiCr(PO4)2
_symmetry_space_group_name_H-M   'P 1'
_cell_length_a   8.59399574
_cell_length_b   8.60681188
_cell_length_c   8.63609590
_cell_angle_alpha   60.18645325
_cell_angle_beta   61.08447709
_cell_angle_gamma   60.06216724
_symmetry_Int_Tables_number   1
_chemical_formula_structural   TiCr(PO4)2
_chemical_formula_sum   'Ti3 Cr3 P6 O24'
_cell_volume   456.14133122
_cell_formula_units_Z   3
loop_
 _symmetry_equiv_pos_site_id
 _symmetry_equiv_pos_as_xyz
  1  'x, y, z'
loop_
 _atom_site_type_symbol
 _atom_site_label
 _atom_site_symmetry_multiplicity
 _atom_site_fract_x
 _atom_site_fract_y
 _atom_site_fract_z
 _atom_site_occupancy
  Ti  Ti0  1  0.063319  0.644747  0.647564  1
  Ti  Ti1  1  0.432892  0.856824  0.853419  1
  Ti  Ti2  1  0.936702  0.355589  0.352013  1
  Cr  Cr3  1  0.000494  0.999309  0.000938  1
  Cr  Cr4  1  0.571763  0.142059  0.143843  1
  Cr  Cr5  1  0.497192  0.500755  0.500971  1
  P  P6  1  0.251275  0.540035  0.959507  1
  P  P7  1  0.255332  0.249177  0.538170  1
  P  P8  1  0.252401  0.956348  0.249659  1
  P  P9  1  0.748771  0.044802  0.751067  1
  P  P10  1  0.746465  0.751490  0.458193  1
  P  P11  1  0.750413  0.456779  0.041467  1
  O  O12  1  0.071097  0.307675  0.500679  1
  O  O13  1  0.071055  0.117499  0.310427  1
  O  O14  1  0.072573  0.499974  0.122160  1
  O  O15  1  0.235705  0.736356  0.941755  1
  O  O16  1  0.432391  0.381158  0.991774  1
  O  O17  1  0.252929  0.561265  0.769355  1
  O  O18  1  0.242868  0.084526  0.729918  1
  O  O19  1  0.261294  0.414585  0.562052  1
  O  O20  1  0.569792  0.003177  0.811035  1
  O  O21  1  0.265550  0.760339  0.415088  1
  O  O22  1  0.770104  0.056242  0.914296  1
  O  O23  1  0.570596  0.805585  0.620655  1
  O  O24  1  0.431212  0.196645  0.379751  1
  O  O25  1  0.229350  0.944628  0.086545  1
  O  O26  1  0.730467  0.240114  0.585267  1
  O  O27  1  0.431429  0.991995  0.191733  1
  O  O28  1  0.735486  0.584924  0.441186  1
  O  O29  1  0.758872  0.915339  0.268306  1
  O  O30  1  0.743385  0.442114  0.231313  1
  O  O31  1  0.569387  0.619874  0.002975  1
  O  O32  1  0.764696  0.262426  0.058652  1
  O  O33  1  0.926795  0.498641  0.880671  1
  O  O34  1  0.927849  0.885435  0.689235  1
  O  O35  1  0.928105  0.691568  0.498358  1
