# generated using pymatgen
data_V5O12
_symmetry_space_group_name_H-M   'P 1'
_cell_length_a   8.98366405
_cell_length_b   9.11599915
_cell_length_c   15.50080491
_cell_angle_alpha   90.00000000
_cell_angle_beta   124.80603610
_cell_angle_gamma   90.00000000
_symmetry_Int_Tables_number   1
_chemical_formula_structural   V5O12
_chemical_formula_sum   'V20 O48'
_cell_volume   1042.32296233
_cell_formula_units_Z   4
loop_
 _symmetry_equiv_pos_site_id
 _symmetry_equiv_pos_as_xyz
  1  'x, y, z'
loop_
 _atom_site_type_symbol
 _atom_site_label
 _atom_site_symmetry_multiplicity
 _atom_site_fract_x
 _atom_site_fract_y
 _atom_site_fract_z
 _atom_site_occupancy
  V  V0  1  0.377261  0.980520  0.124186  1
  V  V1  1  0.622739  0.480520  0.375814  1
  V  V2  1  0.868987  0.029596  0.622436  1
  V  V3  1  0.131013  0.529596  0.877564  1
  V  V4  1  0.868987  0.470404  0.122436  1
  V  V5  1  0.131013  0.970404  0.377564  1
  V  V6  1  0.377261  0.519480  0.624186  1
  V  V7  1  0.622739  0.019480  0.875814  1
  V  V8  1  0.536028  0.746189  0.510271  1
  V  V9  1  0.249990  0.617657  0.141302  1
  V  V10  1  0.973231  0.888884  0.860879  1
  V  V11  1  0.750010  0.117657  0.358698  1
  V  V12  1  0.026769  0.388884  0.639121  1
  V  V13  1  0.463972  0.246189  0.989729  1
  V  V14  1  0.536028  0.753811  0.010271  1
  V  V15  1  0.973231  0.611116  0.360879  1
  V  V16  1  0.249990  0.882343  0.641302  1
  V  V17  1  0.026769  0.111116  0.139121  1
  V  V18  1  0.750010  0.382343  0.858698  1
  V  V19  1  0.463972  0.253811  0.489729  1
  O  O20  1  0.650084  0.143492  0.566127  1
  O  O21  1  0.199430  0.091713  0.115455  1
  O  O22  1  0.475843  0.339569  0.394182  1
  O  O23  1  0.911184  0.419202  0.836089  1
  O  O24  1  0.544741  0.619797  0.423979  1
  O  O25  1  0.287826  0.806661  0.150803  1
  O  O26  1  0.176728  0.556271  0.019025  1
  O  O27  1  0.911052  0.002031  0.751164  1
  O  O28  1  0.983776  0.708953  0.833255  1
  O  O29  1  0.730121  0.849197  0.569509  1
  O  O30  1  0.454292  0.516928  0.239828  1
  O  O31  1  0.545708  0.016928  0.260172  1
  O  O32  1  0.179420  0.938241  0.965461  1
  O  O33  1  0.820580  0.438241  0.534539  1
  O  O34  1  0.269879  0.349197  0.930491  1
  O  O35  1  0.016224  0.208953  0.666745  1
  O  O36  1  0.823272  0.056271  0.480975  1
  O  O37  1  0.088948  0.502031  0.748836  1
  O  O38  1  0.712174  0.306661  0.349197  1
  O  O39  1  0.455259  0.119797  0.076021  1
  O  O40  1  0.524157  0.839569  0.105818  1
  O  O41  1  0.800570  0.591713  0.384545  1
  O  O42  1  0.088816  0.919202  0.663911  1
  O  O43  1  0.349916  0.643492  0.933873  1
  O  O44  1  0.650084  0.356508  0.066127  1
  O  O45  1  0.911184  0.080798  0.336089  1
  O  O46  1  0.199430  0.408287  0.615455  1
  O  O47  1  0.475843  0.160431  0.894182  1
  O  O48  1  0.544741  0.880203  0.923979  1
  O  O49  1  0.287826  0.693339  0.650803  1
  O  O50  1  0.911052  0.497969  0.251164  1
  O  O51  1  0.176728  0.943729  0.519025  1
  O  O52  1  0.983776  0.791047  0.333255  1
  O  O53  1  0.730121  0.650803  0.069509  1
  O  O54  1  0.179420  0.561759  0.465461  1
  O  O55  1  0.820580  0.061759  0.034539  1
  O  O56  1  0.454292  0.983072  0.739828  1
  O  O57  1  0.545708  0.483072  0.760172  1
  O  O58  1  0.269879  0.150803  0.430491  1
  O  O59  1  0.016224  0.291047  0.166745  1
  O  O60  1  0.088948  0.997969  0.248836  1
  O  O61  1  0.823272  0.443729  0.980975  1
  O  O62  1  0.712174  0.193339  0.849197  1
  O  O63  1  0.455259  0.380203  0.576021  1
  O  O64  1  0.088816  0.580798  0.163911  1
  O  O65  1  0.524157  0.660431  0.605818  1
  O  O66  1  0.800570  0.908287  0.884545  1
  O  O67  1  0.349916  0.856508  0.433873  1
