# generated using pymatgen
data_Li3NbS4
_symmetry_space_group_name_H-M   'P 1'
_cell_length_a   7.55800891
_cell_length_b   8.78194786
_cell_length_c   10.30763748
_cell_angle_alpha   90.00000000
_cell_angle_beta   90.00000000
_cell_angle_gamma   90.00000000
_symmetry_Int_Tables_number   1
_chemical_formula_structural   Li3NbS4
_chemical_formula_sum   'Li12 Nb4 S16'
_cell_volume   684.15954419
_cell_formula_units_Z   4
loop_
 _symmetry_equiv_pos_site_id
 _symmetry_equiv_pos_as_xyz
  1  'x, y, z'
loop_
 _atom_site_type_symbol
 _atom_site_label
 _atom_site_symmetry_multiplicity
 _atom_site_fract_x
 _atom_site_fract_y
 _atom_site_fract_z
 _atom_site_occupancy
  Li  Li0  1  0.838787  0.240724  0.574046  1
  Li  Li1  1  0.838787  0.240724  0.925954  1
  Li  Li2  1  0.973286  0.091889  0.250000  1
  Li  Li3  1  0.526714  0.591889  0.750000  1
  Li  Li4  1  0.661213  0.740724  0.074046  1
  Li  Li5  1  0.661213  0.740724  0.425954  1
  Li  Li6  1  0.338787  0.259276  0.574046  1
  Li  Li7  1  0.338787  0.259276  0.925954  1
  Li  Li8  1  0.473286  0.408111  0.250000  1
  Li  Li9  1  0.026714  0.908111  0.750000  1
  Li  Li10  1  0.161213  0.759276  0.074046  1
  Li  Li11  1  0.161213  0.759276  0.425954  1
  Nb  Nb12  1  0.870835  0.504423  0.250000  1
  Nb  Nb13  1  0.629165  0.004423  0.750000  1
  Nb  Nb14  1  0.370835  0.995577  0.250000  1
  Nb  Nb15  1  0.129165  0.495577  0.750000  1
  S  S16  1  0.131057  0.380724  0.250000  1
  S  S17  1  0.796258  0.950070  0.568286  1
  S  S18  1  0.796258  0.950070  0.931714  1
  S  S19  1  0.914985  0.764867  0.250000  1
  S  S20  1  0.585015  0.264867  0.750000  1
  S  S21  1  0.703742  0.450070  0.068286  1
  S  S22  1  0.703742  0.450070  0.431714  1
  S  S23  1  0.368943  0.880724  0.750000  1
  S  S24  1  0.631057  0.119276  0.250000  1
  S  S25  1  0.296258  0.549930  0.568286  1
  S  S26  1  0.296258  0.549930  0.931714  1
  S  S27  1  0.414985  0.735133  0.250000  1
  S  S28  1  0.085015  0.235133  0.750000  1
  S  S29  1  0.203742  0.049930  0.068286  1
  S  S30  1  0.203742  0.049930  0.431714  1
  S  S31  1  0.868943  0.619276  0.750000  1
