# generated using pymatgen
data_Li2VO2F
_symmetry_space_group_name_H-M   'P 1'
_cell_length_a   5.17036697
_cell_length_b   5.17036697
_cell_length_c   9.87521599
_cell_angle_alpha   85.06174378
_cell_angle_beta   94.93825622
_cell_angle_gamma   59.90067218
_symmetry_Int_Tables_number   1
_chemical_formula_structural   Li2VO2F
_chemical_formula_sum   'Li8 V4 O8 F4'
_cell_volume   224.97319214
_cell_formula_units_Z   4
loop_
 _symmetry_equiv_pos_site_id
 _symmetry_equiv_pos_as_xyz
  1  'x, y, z'
loop_
 _atom_site_type_symbol
 _atom_site_label
 _atom_site_symmetry_multiplicity
 _atom_site_fract_x
 _atom_site_fract_y
 _atom_site_fract_z
 _atom_site_occupancy
  Li  Li0  1  0.345801  0.837216  0.747697  1
  Li  Li1  1  0.516511  0.986270  0.249940  1
  Li  Li2  1  0.907339  0.907339  0.500000  1
  Li  Li3  1  0.837216  0.345801  0.252303  1
  Li  Li4  1  0.986270  0.516511  0.750060  1
  Li  Li5  1  0.139756  0.664208  0.256285  1
  Li  Li6  1  0.253691  0.253691  0.500000  1
  Li  Li7  1  0.664208  0.139756  0.743715  1
  V  V8  1  0.748670  0.748670  0.000000  1
  V  V9  1  0.604597  0.604597  0.500000  1
  V  V10  1  0.415673  0.415673  0.000000  1
  V  V11  1  0.081764  0.081764  0.000000  1
  O  O12  1  0.452463  0.711603  0.114777  1
  O  O13  1  0.622211  0.865500  0.619578  1
  O  O14  1  0.043873  0.786671  0.883424  1
  O  O15  1  0.711603  0.452463  0.885223  1
  O  O16  1  0.865500  0.622211  0.380422  1
  O  O17  1  0.121587  0.376487  0.116517  1
  O  O18  1  0.376487  0.121587  0.883483  1
  O  O19  1  0.786671  0.043873  0.116576  1
  F  F20  1  0.212202  0.956601  0.377070  1
  F  F21  1  0.308650  0.540767  0.618083  1
  F  F22  1  0.956601  0.212202  0.622930  1
  F  F23  1  0.540767  0.308650  0.381917  1
