# generated using pymatgen
data_Hf2N2O
_symmetry_space_group_name_H-M   'P 1'
_cell_length_a   8.71451777
_cell_length_b   8.72346215
_cell_length_c   8.73681303
_cell_angle_alpha   109.39394087
_cell_angle_beta   109.41154887
_cell_angle_gamma   109.46029640
_symmetry_Int_Tables_number   1
_chemical_formula_structural   Hf2N2O
_chemical_formula_sum   'Hf16 N16 O8'
_cell_volume   512.21622609
_cell_formula_units_Z   8
loop_
 _symmetry_equiv_pos_site_id
 _symmetry_equiv_pos_as_xyz
  1  'x, y, z'
loop_
 _atom_site_type_symbol
 _atom_site_label
 _atom_site_symmetry_multiplicity
 _atom_site_fract_x
 _atom_site_fract_y
 _atom_site_fract_z
 _atom_site_occupancy
  Hf  Hf0  1  0.991267  0.992468  0.492785  1
  Hf  Hf1  1  0.250932  0.714472  0.463382  1
  Hf  Hf2  1  0.286561  0.035098  0.250477  1
  Hf  Hf3  1  0.782528  0.539635  0.259719  1
  Hf  Hf4  1  0.737795  0.787661  0.032209  1
  Hf  Hf5  1  0.970322  0.744399  0.711322  1
  Hf  Hf6  1  0.032853  0.251806  0.287598  1
  Hf  Hf7  1  0.545947  0.255468  0.787292  1
  Hf  Hf8  1  0.012395  0.502283  0.995707  1
  Hf  Hf9  1  0.488402  0.491449  0.489800  1
  Hf  Hf10  1  0.498486  0.000378  0.000851  1
  Hf  Hf11  1  0.458682  0.740662  0.212829  1
  Hf  Hf12  1  0.260225  0.215248  0.975174  1
  Hf  Hf13  1  0.716831  0.969132  0.750723  1
  Hf  Hf14  1  0.210571  0.462779  0.745324  1
  Hf  Hf15  1  0.754092  0.290979  0.541333  1
  N  N16  1  0.730634  0.762339  0.270815  1
  N  N17  1  0.052155  0.778126  0.515934  1
  N  N18  1  0.518695  0.746003  0.473188  1
  N  N19  1  0.535899  0.273659  0.041773  1
  N  N20  1  0.223962  0.772022  0.236097  1
  N  N21  1  0.228140  0.954328  0.966430  1
  N  N22  1  0.485019  0.259198  0.535663  1
  N  N23  1  0.726638  0.489493  0.455882  1
  N  N24  1  0.011173  0.543664  0.772339  1
  N  N25  1  0.258275  0.271507  0.227321  1
  N  N26  1  0.773249  0.045142  0.033515  1
  N  N27  1  0.465198  0.728185  0.952859  1
  N  N28  1  0.238209  0.462570  0.010382  1
  N  N29  1  0.773553  0.228119  0.768408  1
  N  N30  1  0.268910  0.512438  0.542911  1
  N  N31  1  0.949665  0.219509  0.485876  1
  O  O32  1  0.963668  0.009300  0.734893  1
  O  O33  1  0.037241  0.992311  0.266525  1
  O  O34  1  0.454293  0.966135  0.728039  1
  O  O35  1  0.269103  0.231711  0.725063  1
  O  O36  1  0.985246  0.455582  0.226606  1
  O  O37  1  0.747619  0.730951  0.779275  1
  O  O38  1  0.761069  0.537141  0.983276  1
  O  O39  1  0.544502  0.036654  0.270406  1
