# generated using pymatgen
data_Li3Sb3P8O29
_symmetry_space_group_name_H-M   'P 1'
_cell_length_a   9.75664968
_cell_length_b   9.75664968
_cell_length_c   14.49297554
_cell_angle_alpha   89.34373902
_cell_angle_beta   90.65626098
_cell_angle_gamma   119.33820938
_symmetry_Int_Tables_number   1
_chemical_formula_structural   Li3Sb3P8O29
_chemical_formula_sum   'Li6 Sb6 P16 O58'
_cell_volume   1202.56641201
_cell_formula_units_Z   2
loop_
 _symmetry_equiv_pos_site_id
 _symmetry_equiv_pos_as_xyz
  1  'x, y, z'
loop_
 _atom_site_type_symbol
 _atom_site_label
 _atom_site_symmetry_multiplicity
 _atom_site_fract_x
 _atom_site_fract_y
 _atom_site_fract_z
 _atom_site_occupancy
  Li  Li0  1  0.000000  0.000000  0.000000  1
  Li  Li1  1  0.000000  0.000000  0.500000  1
  Li  Li2  1  0.897581  0.666087  0.549444  1
  Li  Li3  1  0.333913  0.102419  0.049444  1
  Li  Li4  1  0.666087  0.897581  0.950556  1
  Li  Li5  1  0.102419  0.333913  0.450556  1
  Sb  Sb6  1  0.997509  0.435694  0.241648  1
  Sb  Sb7  1  0.002491  0.564306  0.758352  1
  Sb  Sb8  1  0.564306  0.002491  0.741648  1
  Sb  Sb9  1  0.435694  0.997509  0.258352  1
  Sb  Sb10  1  0.558970  0.558970  0.250000  1
  Sb  Sb11  1  0.441030  0.441030  0.750000  1
  P  P12  1  0.918116  0.211769  0.840148  1
  P  P13  1  0.788231  0.081884  0.340148  1
  P  P14  1  0.913303  0.689270  0.342417  1
  P  P15  1  0.672338  0.341246  0.632168  1
  P  P16  1  0.658754  0.327662  0.132168  1
  P  P17  1  0.780468  0.700266  0.844242  1
  P  P18  1  0.700266  0.780468  0.655758  1
  P  P19  1  0.310730  0.086697  0.842417  1
  P  P20  1  0.689270  0.913303  0.157583  1
  P  P21  1  0.299734  0.219532  0.344242  1
  P  P22  1  0.219532  0.299734  0.155758  1
  P  P23  1  0.327662  0.658754  0.367832  1
  P  P24  1  0.341246  0.672338  0.867832  1
  P  P25  1  0.086697  0.310730  0.657583  1
  P  P26  1  0.211769  0.918116  0.659852  1
  P  P27  1  0.081884  0.788231  0.159852  1
  O  O28  1  0.989755  0.199736  0.742431  1
  O  O29  1  0.015919  0.231974  0.568792  1
  O  O30  1  0.921491  0.259065  0.334445  1
  O  O31  1  0.800264  0.010245  0.242431  1
  O  O32  1  0.768026  0.984081  0.068792  1
  O  O33  1  0.740935  0.078509  0.834445  1
  O  O34  1  0.921103  0.374630  0.840409  1
  O  O35  1  0.801430  0.310451  0.171001  1
  O  O36  1  0.910547  0.528948  0.329829  1
  O  O37  1  0.004884  0.821090  0.081597  1
  O  O38  1  0.010245  0.800264  0.257569  1
  O  O39  1  0.917999  0.662306  0.844259  1
  O  O40  1  0.689549  0.198570  0.671001  1
  O  O41  1  0.625370  0.078897  0.340409  1
  O  O42  1  0.812005  0.494408  0.678683  1
  O  O43  1  0.680968  0.359979  0.530914  1
  O  O44  1  0.640021  0.319032  0.030914  1
  O  O45  1  0.678815  0.481002  0.179182  1
  O  O46  1  0.471052  0.089453  0.829829  1
  O  O47  1  0.505592  0.187995  0.178683  1
  O  O48  1  0.741971  0.659277  0.334215  1
  O  O49  1  0.795873  0.795873  0.750000  1
  O  O50  1  0.801846  0.794060  0.576773  1
  O  O51  1  0.794060  0.801846  0.923227  1
  O  O52  1  0.621860  0.542088  0.838615  1
  O  O53  1  0.518998  0.321185  0.679182  1
  O  O54  1  0.659277  0.741971  0.165785  1
  O  O55  1  0.457912  0.378140  0.338615  1
  O  O56  1  0.337694  0.082001  0.344259  1
  O  O57  1  0.821090  0.004884  0.418403  1
  O  O58  1  0.178910  0.995116  0.581597  1
  O  O59  1  0.199736  0.989755  0.757569  1
  O  O60  1  0.662306  0.917999  0.655741  1
  O  O61  1  0.542088  0.621860  0.661385  1
  O  O62  1  0.340723  0.258029  0.834215  1
  O  O63  1  0.481002  0.678815  0.320818  1
  O  O64  1  0.378140  0.457912  0.161385  1
  O  O65  1  0.205940  0.198154  0.076773  1
  O  O66  1  0.198154  0.205940  0.423227  1
  O  O67  1  0.204127  0.204127  0.250000  1
  O  O68  1  0.258029  0.340723  0.665785  1
  O  O69  1  0.494408  0.812005  0.821317  1
  O  O70  1  0.528948  0.910547  0.170171  1
  O  O71  1  0.321185  0.518998  0.820818  1
  O  O72  1  0.319032  0.640021  0.469086  1
  O  O73  1  0.359979  0.680968  0.969086  1
  O  O74  1  0.187995  0.505592  0.321317  1
  O  O75  1  0.374630  0.921103  0.659591  1
  O  O76  1  0.310451  0.801430  0.328999  1
  O  O77  1  0.082001  0.337694  0.155741  1
  O  O78  1  0.995116  0.178910  0.918403  1
  O  O79  1  0.089453  0.471052  0.670171  1
  O  O80  1  0.198570  0.689549  0.828999  1
  O  O81  1  0.078897  0.625370  0.159591  1
  O  O82  1  0.259065  0.921491  0.165555  1
  O  O83  1  0.231974  0.015919  0.931208  1
  O  O84  1  0.078509  0.740935  0.665555  1
  O  O85  1  0.984081  0.768026  0.431208  1
