# generated using pymatgen
data_Li24Ti7Cr5O36
_symmetry_space_group_name_H-M   'P 1'
_cell_length_a   5.05806005
_cell_length_b   9.79891306
_cell_length_c   13.44988311
_cell_angle_alpha   97.14326759
_cell_angle_beta   100.58667477
_cell_angle_gamma   94.61965030
_symmetry_Int_Tables_number   1
_chemical_formula_structural   Li24Ti7Cr5O36
_chemical_formula_sum   'Li24 Ti7 Cr5 O36'
_cell_volume   646.52684133
_cell_formula_units_Z   1
loop_
 _symmetry_equiv_pos_site_id
 _symmetry_equiv_pos_as_xyz
  1  'x, y, z'
loop_
 _atom_site_type_symbol
 _atom_site_label
 _atom_site_symmetry_multiplicity
 _atom_site_fract_x
 _atom_site_fract_y
 _atom_site_fract_z
 _atom_site_occupancy
  Li  Li0  1  0.157789  0.000284  0.835355  1
  Li  Li1  1  0.052656  0.000107  0.612421  1
  Li  Li2  1  0.000502  0.749386  0.251494  1
  Li  Li3  1  0.332039  0.750469  0.915916  1
  Li  Li4  1  0.044129  0.498580  0.111882  1
  Li  Li5  1  0.383744  0.499659  0.778541  1
  Li  Li6  1  0.165542  0.499833  0.333819  1
  Li  Li7  1  0.495221  0.500525  0.999805  1
  Li  Li8  1  0.287508  0.499241  0.552827  1
  Li  Li9  1  0.330244  0.249547  0.416318  1
  Li  Li10  1  0.490818  0.001072  0.501721  1
  Li  Li11  1  0.289779  0.002016  0.053962  1
  Li  Li12  1  0.621086  0.000078  0.718691  1
  Li  Li13  1  0.379011  0.001969  0.279627  1
  Li  Li14  1  0.714741  0.998786  0.944509  1
  Li  Li15  1  0.665042  0.750152  0.584057  1
  Li  Li16  1  0.719481  0.500971  0.447358  1
  Li  Li17  1  0.822848  0.499620  0.668853  1
  Li  Li18  1  0.620130  0.500623  0.221145  1
  Li  Li19  1  0.957670  0.500468  0.886795  1
  Li  Li20  1  0.666717  0.249732  0.083072  1
  Li  Li21  1  0.835544  0.999027  0.167619  1
  Li  Li22  1  0.000784  0.250577  0.751251  1
  Li  Li23  1  0.955008  0.998093  0.386838  1
  Ti  Ti24  1  0.225359  0.749920  0.693330  1
  Ti  Ti25  1  0.565345  0.256093  0.860914  1
  Ti  Ti26  1  0.447169  0.749486  0.139303  1
  Ti  Ti27  1  0.554566  0.746947  0.361023  1
  Ti  Ti28  1  0.774600  0.248615  0.305621  1
  Ti  Ti29  1  0.886950  0.246307  0.527144  1
  Ti  Ti30  1  0.895746  0.753733  0.026639  1
  Cr  Cr31  1  0.120130  0.250618  0.973668  1
  Cr  Cr32  1  0.106564  0.750435  0.473666  1
  Cr  Cr33  1  0.215994  0.248368  0.192136  1
  Cr  Cr34  1  0.438502  0.250188  0.640259  1
  Cr  Cr35  1  0.774033  0.749562  0.805957  1
  O  O36  1  0.005818  0.863793  0.929227  1
  O  O37  1  0.066594  0.636533  0.785544  1
  O  O38  1  0.996872  0.363325  0.428540  1
  O  O39  1  0.152013  0.362219  0.644420  1
  O  O40  1  0.266400  0.366480  0.880834  1
  O  O41  1  0.336450  0.863411  0.596410  1
  O  O42  1  0.067207  0.133402  0.285214  1
  O  O43  1  0.187894  0.136621  0.522663  1
  O  O44  1  0.395952  0.134949  0.951788  1
  O  O45  1  0.141382  0.863402  0.142951  1
  O  O46  1  0.260607  0.863599  0.383175  1
  O  O47  1  0.484969  0.862846  0.810391  1
  O  O48  1  0.335105  0.137829  0.735156  1
  O  O49  1  0.190563  0.636459  0.022758  1
  O  O50  1  0.401400  0.635949  0.453475  1
  O  O51  1  0.521181  0.636056  0.688911  1
  O  O52  1  0.332212  0.636201  0.238239  1
  O  O53  1  0.664747  0.638465  0.900986  1
  O  O54  1  0.331842  0.360697  0.090840  1
  O  O55  1  0.673017  0.364312  0.763084  1
  O  O56  1  0.471829  0.361465  0.307342  1
  O  O57  1  0.594454  0.363612  0.549639  1
  O  O58  1  0.813698  0.362391  0.977513  1
  O  O59  1  0.666760  0.863478  0.262465  1
  O  O60  1  0.519169  0.138545  0.188562  1
  O  O61  1  0.735189  0.136172  0.620138  1
  O  O62  1  0.861463  0.138146  0.859210  1
  O  O63  1  0.596308  0.866249  0.047941  1
  O  O64  1  0.817856  0.861783  0.478000  1
  O  O65  1  0.927440  0.864044  0.715994  1
  O  O66  1  0.665244  0.134768  0.404545  1
  O  O67  1  0.734639  0.633656  0.117195  1
  O  O68  1  0.854516  0.636319  0.356064  1
  O  O69  1  0.999055  0.637337  0.568626  1
  O  O70  1  0.935964  0.364900  0.213557  1
  O  O71  1  0.001200  0.139505  0.075065  1
