# generated using pymatgen
data_LiFe2F7
_symmetry_space_group_name_H-M   'P 1'
_cell_length_a   7.47101339
_cell_length_b   5.10341286
_cell_length_c   13.00480101
_cell_angle_alpha   90.00000000
_cell_angle_beta   95.56608932
_cell_angle_gamma   90.00000000
_symmetry_Int_Tables_number   1
_chemical_formula_structural   LiFe2F7
_chemical_formula_sum   'Li4 Fe8 F28'
_cell_volume   493.50479886
_cell_formula_units_Z   4
loop_
 _symmetry_equiv_pos_site_id
 _symmetry_equiv_pos_as_xyz
  1  'x, y, z'
loop_
 _atom_site_type_symbol
 _atom_site_label
 _atom_site_symmetry_multiplicity
 _atom_site_fract_x
 _atom_site_fract_y
 _atom_site_fract_z
 _atom_site_occupancy
  Li  Li0  1  0.147082  0.254927  0.928862  1
  Li  Li1  1  0.647082  0.245073  0.928862  1
  Li  Li2  1  0.352918  0.754927  0.071138  1
  Li  Li3  1  0.852918  0.745073  0.071138  1
  Fe  Fe4  1  0.343601  0.752088  0.818573  1
  Fe  Fe5  1  0.843601  0.747912  0.818573  1
  Fe  Fe6  1  0.276202  0.247304  0.606735  1
  Fe  Fe7  1  0.776202  0.252696  0.606735  1
  Fe  Fe8  1  0.223798  0.747304  0.393265  1
  Fe  Fe9  1  0.723798  0.752696  0.393265  1
  Fe  Fe10  1  0.156399  0.252088  0.181427  1
  Fe  Fe11  1  0.656399  0.247912  0.181427  1
  F  F12  1  0.423220  0.054683  0.894238  1
  F  F13  1  0.311623  0.559554  0.942833  1
  F  F14  1  0.091753  0.895040  0.823405  1
  F  F15  1  0.923220  0.445317  0.894238  1
  F  F16  1  0.811623  0.940446  0.942833  1
  F  F17  1  0.591753  0.604960  0.823405  1
  F  F18  1  0.357697  0.937538  0.686667  1
  F  F19  1  0.251556  0.443268  0.736002  1
  F  F20  1  0.857697  0.562462  0.686667  1
  F  F21  1  0.751556  0.056732  0.736002  1
  F  F22  1  0.526123  0.366076  0.608130  1
  F  F23  1  0.026123  0.133924  0.608130  1
  F  F24  1  0.199408  0.550956  0.521675  1
  F  F25  1  0.300592  0.050956  0.478325  1
  F  F26  1  0.699408  0.949044  0.521675  1
  F  F27  1  0.800592  0.449044  0.478325  1
  F  F28  1  0.973877  0.866076  0.391870  1
  F  F29  1  0.473877  0.633924  0.391870  1
  F  F30  1  0.248444  0.943268  0.263998  1
  F  F31  1  0.142303  0.437538  0.313333  1
  F  F32  1  0.748444  0.556732  0.263998  1
  F  F33  1  0.642303  0.062462  0.313333  1
  F  F34  1  0.408247  0.395040  0.176595  1
  F  F35  1  0.188377  0.059554  0.057167  1
  F  F36  1  0.076780  0.554683  0.105762  1
  F  F37  1  0.908247  0.104960  0.176595  1
  F  F38  1  0.688377  0.440446  0.057167  1
  F  F39  1  0.576780  0.945317  0.105762  1
