# generated using pymatgen
data_Li3NbFe3O8
_symmetry_space_group_name_H-M   'P 1'
_cell_length_a   6.01791710
_cell_length_b   6.05294450
_cell_length_c   6.08156360
_cell_angle_alpha   119.41122831
_cell_angle_beta   119.13067470
_cell_angle_gamma   90.69829614
_symmetry_Int_Tables_number   1
_chemical_formula_structural   Li3NbFe3O8
_chemical_formula_sum   'Li3 Nb1 Fe3 O8'
_cell_volume   159.11386879
_cell_formula_units_Z   1
loop_
 _symmetry_equiv_pos_site_id
 _symmetry_equiv_pos_as_xyz
  1  'x, y, z'
loop_
 _atom_site_type_symbol
 _atom_site_label
 _atom_site_symmetry_multiplicity
 _atom_site_fract_x
 _atom_site_fract_y
 _atom_site_fract_z
 _atom_site_occupancy
  Li  Li0  1  0.500000  0.500000  0.500000  1
  Li  Li1  1  0.500000  0.000000  0.500000  1
  Li  Li2  1  0.500000  0.500000  0.000000  1
  Nb  Nb3  1  0.000000  0.000000  0.000000  1
  Fe  Fe4  1  0.000000  0.500000  0.500000  1
  Fe  Fe5  1  0.000000  0.000000  0.500000  1
  Fe  Fe6  1  0.000000  0.500000  0.000000  1
  O  O7  1  0.204374  0.724041  0.456992  1
  O  O8  1  0.766229  0.753046  0.530143  1
  O  O9  1  0.774619  0.249888  0.012027  1
  O  O10  1  0.773180  0.747281  0.995769  1
  O  O11  1  0.226820  0.252719  0.004231  1
  O  O12  1  0.225381  0.750112  0.987973  1
  O  O13  1  0.233771  0.246954  0.469857  1
  O  O14  1  0.795626  0.275959  0.543008  1
