# generated using pymatgen
data_Li4Mn3Sn5O16
_symmetry_space_group_name_H-M   'P 1'
_cell_length_a   6.25176022
_cell_length_b   6.25176022
_cell_length_c   9.92474173
_cell_angle_alpha   88.28849350
_cell_angle_beta   91.71150650
_cell_angle_gamma   121.48378759
_symmetry_Int_Tables_number   1
_chemical_formula_structural   Li4Mn3Sn5O16
_chemical_formula_sum   'Li4 Mn3 Sn5 O16'
_cell_volume   330.60564477
_cell_formula_units_Z   1
loop_
 _symmetry_equiv_pos_site_id
 _symmetry_equiv_pos_as_xyz
  1  'x, y, z'
loop_
 _atom_site_type_symbol
 _atom_site_label
 _atom_site_symmetry_multiplicity
 _atom_site_fract_x
 _atom_site_fract_y
 _atom_site_fract_z
 _atom_site_occupancy
  Li  Li0  1  0.663938  0.336062  0.894547  1
  Li  Li1  1  0.989214  0.010786  0.986755  1
  Li  Li2  1  0.997523  0.002477  0.495622  1
  Li  Li3  1  0.332026  0.667974  0.401170  1
  Mn  Mn4  1  0.831054  0.168946  0.213650  1
  Mn  Mn5  1  0.170379  0.338791  0.712268  1
  Mn  Mn6  1  0.661209  0.829621  0.712268  1
  Sn  Sn7  1  0.339475  0.167867  0.214494  1
  Sn  Sn8  1  0.673068  0.326932  0.492920  1
  Sn  Sn9  1  0.832133  0.660525  0.214494  1
  Sn  Sn10  1  0.169997  0.830003  0.715625  1
  Sn  Sn11  1  0.336285  0.663715  0.986122  1
  O  O12  1  0.331892  0.155384  0.594354  1
  O  O13  1  0.516530  0.483470  0.342936  1
  O  O14  1  0.661318  0.338682  0.101198  1
  O  O15  1  0.003626  0.996374  0.311739  1
  O  O16  1  0.996732  0.003268  0.802181  1
  O  O17  1  0.844616  0.668108  0.594354  1
  O  O18  1  0.508163  0.033274  0.348238  1
  O  O19  1  0.966726  0.491837  0.348238  1
  O  O20  1  0.161283  0.838717  0.096811  1
  O  O21  1  0.843697  0.156303  0.599960  1
  O  O22  1  0.029536  0.522473  0.848598  1
  O  O23  1  0.477527  0.970464  0.848598  1
  O  O24  1  0.337221  0.662779  0.611217  1
  O  O25  1  0.171963  0.325312  0.092470  1
  O  O26  1  0.477970  0.522030  0.834253  1
  O  O27  1  0.674688  0.828037  0.092470  1
