# generated using pymatgen
data_Li2HfO3
_symmetry_space_group_name_H-M   'P 1'
_cell_length_a   5.24390836
_cell_length_b   5.24390836
_cell_length_c   3.16229706
_cell_angle_alpha   78.96568487
_cell_angle_beta   101.03431513
_cell_angle_gamma   133.01962822
_symmetry_Int_Tables_number   1
_chemical_formula_structural   Li2HfO3
_chemical_formula_sum   'Li2 Hf1 O3'
_cell_volume   62.17734605
_cell_formula_units_Z   1
loop_
 _symmetry_equiv_pos_site_id
 _symmetry_equiv_pos_as_xyz
  1  'x, y, z'
loop_
 _atom_site_type_symbol
 _atom_site_label
 _atom_site_symmetry_multiplicity
 _atom_site_fract_x
 _atom_site_fract_y
 _atom_site_fract_z
 _atom_site_occupancy
  Li  Li0  1  0.335734  0.664266  0.400863  1
  Li  Li1  1  0.664266  0.335734  0.599137  1
  Hf  Hf2  1  0.000000  0.000000  0.000000  1
  O  O3  1  0.146429  0.853571  0.594857  1
  O  O4  1  0.500000  0.500000  0.000000  1
  O  O5  1  0.853571  0.146429  0.405143  1
