# generated using pymatgen
data_Li3Fe8(BO3)8
_symmetry_space_group_name_H-M   'P 1'
_cell_length_a   5.23494053
_cell_length_b   9.12902570
_cell_length_c   11.36948476
_cell_angle_alpha   113.25819989
_cell_angle_beta   103.25672919
_cell_angle_gamma   89.40916275
_symmetry_Int_Tables_number   1
_chemical_formula_structural   Li3Fe8(BO3)8
_chemical_formula_sum   'Li3 Fe8 B8 O24'
_cell_volume   483.92921109
_cell_formula_units_Z   1
loop_
 _symmetry_equiv_pos_site_id
 _symmetry_equiv_pos_as_xyz
  1  'x, y, z'
loop_
 _atom_site_type_symbol
 _atom_site_label
 _atom_site_symmetry_multiplicity
 _atom_site_fract_x
 _atom_site_fract_y
 _atom_site_fract_z
 _atom_site_occupancy
  Li  Li0  1  0.281765  0.276141  0.898889  1
  Li  Li1  1  0.266275  0.252114  0.162057  1
  Li  Li2  1  0.970356  0.984882  0.631446  1
  Fe  Fe3  1  0.013881  0.348593  0.380856  1
  Fe  Fe4  1  0.256918  0.928213  0.876365  1
  Fe  Fe5  1  0.466628  0.164293  0.627654  1
  Fe  Fe6  1  0.252920  0.572925  0.132463  1
  Fe  Fe7  1  0.772413  0.444504  0.880853  1
  Fe  Fe8  1  0.519195  0.854535  0.377850  1
  Fe  Fe9  1  0.982920  0.643646  0.631896  1
  Fe  Fe10  1  0.734330  0.054775  0.120945  1
  B  B11  1  0.031998  0.691979  0.387702  1
  B  B12  1  0.273452  0.596486  0.873620  1
  B  B13  1  0.482847  0.817120  0.627274  1
  B  B14  1  0.237041  0.904410  0.134124  1
  B  B15  1  0.517934  0.179624  0.368947  1
  B  B16  1  0.768242  0.114752  0.880331  1
  B  B17  1  0.963741  0.314497  0.633738  1
  B  B18  1  0.734260  0.384124  0.119420  1
  O  O19  1  0.021708  0.101709  0.866076  1
  O  O20  1  0.122324  0.695100  0.824453  1
  O  O21  1  0.154243  0.496753  0.917620  1
  O  O22  1  0.098899  0.188520  0.639445  1
  O  O23  1  0.042965  0.411545  0.574851  1
  O  O24  1  0.236167  0.829229  0.660703  1
  O  O25  1  0.257014  0.681548  0.341354  1
  O  O26  1  0.535630  0.596652  0.881619  1
  O  O27  1  0.613929  0.225497  0.845074  1
  O  O28  1  0.460684  0.079390  0.424798  1
  O  O29  1  0.349010  0.289056  0.351399  1
  O  O30  1  0.652074  0.022620  0.930476  1
  O  O31  1  0.351555  0.007322  0.090181  1
  O  O32  1  0.639254  0.699874  0.636284  1
  O  O33  1  0.566262  0.930456  0.586115  1
  O  O34  1  0.393763  0.805546  0.180305  1
  O  O35  1  0.467902  0.379835  0.109589  1
  O  O36  1  0.745021  0.352433  0.684634  1
  O  O37  1  0.750554  0.167932  0.325395  1
  O  O38  1  0.964942  0.573008  0.428534  1
  O  O39  1  0.877795  0.816185  0.399225  1
  O  O40  1  0.862616  0.477484  0.076701  1
  O  O41  1  0.890510  0.283756  0.171347  1
  O  O42  1  0.974503  0.906124  0.128789  1
