# generated using pymatgen
data_Ti2P2H4O11
_symmetry_space_group_name_H-M   'P 1'
_cell_length_a   5.17790473
_cell_length_b   8.92610167
_cell_length_c   9.80169922
_cell_angle_alpha   73.58549674
_cell_angle_beta   85.76326858
_cell_angle_gamma   85.74056712
_symmetry_Int_Tables_number   1
_chemical_formula_structural   Ti2P2H4O11
_chemical_formula_sum   'Ti4 P4 H8 O22'
_cell_volume   432.69278169
_cell_formula_units_Z   2
loop_
 _symmetry_equiv_pos_site_id
 _symmetry_equiv_pos_as_xyz
  1  'x, y, z'
loop_
 _atom_site_type_symbol
 _atom_site_label
 _atom_site_symmetry_multiplicity
 _atom_site_fract_x
 _atom_site_fract_y
 _atom_site_fract_z
 _atom_site_occupancy
  Ti  Ti0  1  0.738932  0.729175  0.335867  1
  Ti  Ti1  1  0.261068  0.270825  0.664133  1
  Ti  Ti2  1  0.045613  0.882527  0.795932  1
  Ti  Ti3  1  0.954387  0.117473  0.204068  1
  P  P4  1  0.219509  0.669675  0.568720  1
  P  P5  1  0.780491  0.330325  0.431280  1
  P  P6  1  0.256059  0.819499  0.117257  1
  P  P7  1  0.743941  0.180501  0.882743  1
  H  H8  1  0.822933  0.675363  0.024761  1
  H  H9  1  0.177067  0.324637  0.975239  1
  H  H10  1  0.607310  0.707919  0.919036  1
  H  H11  1  0.392690  0.292081  0.080964  1
  H  H12  1  0.396570  0.013542  0.356581  1
  H  H13  1  0.603430  0.986458  0.643419  1
  H  H14  1  0.765405  0.858670  0.574618  1
  H  H15  1  0.234595  0.141330  0.425382  1
  O  O16  1  0.950779  0.701318  0.503894  1
  O  O17  1  0.049221  0.298682  0.496106  1
  O  O18  1  0.708777  0.506216  0.381440  1
  O  O19  1  0.291223  0.493784  0.618560  1
  O  O20  1  0.525874  0.760160  0.171671  1
  O  O21  1  0.474126  0.239840  0.828329  1
  O  O22  1  0.429101  0.754385  0.459382  1
  O  O23  1  0.570899  0.245615  0.540618  1
  O  O24  1  0.045300  0.717957  0.211202  1
  O  O25  1  0.954700  0.282043  0.788798  1
  O  O26  1  0.771040  0.953849  0.294018  1
  O  O27  1  0.228960  0.046151  0.705982  1
  O  O28  1  0.205257  0.736310  0.699314  1
  O  O29  1  0.794743  0.263690  0.300686  1
  O  O30  1  0.253293  0.804543  0.963152  1
  O  O31  1  0.746707  0.195457  0.036848  1
  O  O32  1  0.797213  0.007856  0.882504  1
  O  O33  1  0.202787  0.992144  0.117496  1
  O  O34  1  0.795700  0.686536  0.924527  1
  O  O35  1  0.204300  0.313464  0.075473  1
  O  O36  1  0.762159  0.917938  0.645635  1
  O  O37  1  0.237841  0.082062  0.354365  1
