# generated using pymatgen
data_Li2Mn3(FeO4)3
_symmetry_space_group_name_H-M   'P 1'
_cell_length_a   5.10997589
_cell_length_b   6.06183407
_cell_length_c   7.98117708
_cell_angle_alpha   76.07642203
_cell_angle_beta   77.45674092
_cell_angle_gamma   73.38974247
_symmetry_Int_Tables_number   1
_chemical_formula_structural   Li2Mn3(FeO4)3
_chemical_formula_sum   'Li2 Mn3 Fe3 O12'
_cell_volume   227.00105467
_cell_formula_units_Z   1
loop_
 _symmetry_equiv_pos_site_id
 _symmetry_equiv_pos_as_xyz
  1  'x, y, z'
loop_
 _atom_site_type_symbol
 _atom_site_label
 _atom_site_symmetry_multiplicity
 _atom_site_fract_x
 _atom_site_fract_y
 _atom_site_fract_z
 _atom_site_occupancy
  Li  Li0  1  0.500000  0.000000  0.500000  1
  Li  Li1  1  0.000000  0.500000  0.000000  1
  Mn  Mn2  1  0.002314  0.662709  0.332904  1
  Mn  Mn3  1  0.997686  0.337291  0.667096  1
  Mn  Mn4  1  0.000000  0.000000  0.000000  1
  Fe  Fe5  1  0.500000  0.500000  0.500000  1
  Fe  Fe6  1  0.502485  0.168171  0.836612  1
  Fe  Fe7  1  0.497515  0.831829  0.163388  1
  O  O8  1  0.761526  0.638936  0.557945  1
  O  O9  1  0.273362  0.787473  0.404251  1
  O  O10  1  0.748712  0.527220  0.272966  1
  O  O11  1  0.726638  0.212527  0.595749  1
  O  O12  1  0.214529  0.694482  0.099990  1
  O  O13  1  0.238474  0.361064  0.442055  1
  O  O14  1  0.785471  0.305518  0.900010  1
  O  O15  1  0.779370  0.960799  0.237667  1
  O  O16  1  0.251288  0.472780  0.727034  1
  O  O17  1  0.247220  0.140027  0.064142  1
  O  O18  1  0.752780  0.859973  0.935858  1
  O  O19  1  0.220630  0.039201  0.762333  1
