# generated using pymatgen
data_Sr2MnCO3F5
_symmetry_space_group_name_H-M   'P 1'
_cell_length_a   5.58556180
_cell_length_b   9.06411734
_cell_length_c   13.96356780
_cell_angle_alpha   90.00000000
_cell_angle_beta   106.94217075
_cell_angle_gamma   90.00000000
_symmetry_Int_Tables_number   1
_chemical_formula_structural   Sr2MnCO3F5
_chemical_formula_sum   'Sr8 Mn4 C4 O12 F20'
_cell_volume   676.26804322
_cell_formula_units_Z   4
loop_
 _symmetry_equiv_pos_site_id
 _symmetry_equiv_pos_as_xyz
  1  'x, y, z'
loop_
 _atom_site_type_symbol
 _atom_site_label
 _atom_site_symmetry_multiplicity
 _atom_site_fract_x
 _atom_site_fract_y
 _atom_site_fract_z
 _atom_site_occupancy
  Sr  Sr0  1  0.693831  0.891598  0.901986  1
  Sr  Sr1  1  0.691640  0.354864  0.914096  1
  Sr  Sr2  1  0.308360  0.854864  0.585904  1
  Sr  Sr3  1  0.306169  0.391598  0.598014  1
  Sr  Sr4  1  0.693831  0.608402  0.401986  1
  Sr  Sr5  1  0.691640  0.145136  0.414096  1
  Sr  Sr6  1  0.308360  0.645136  0.085904  1
  Sr  Sr7  1  0.306169  0.108402  0.098014  1
  Mn  Mn8  1  0.191083  0.873493  0.327943  1
  Mn  Mn9  1  0.808917  0.373493  0.172057  1
  Mn  Mn10  1  0.191083  0.626507  0.827943  1
  Mn  Mn11  1  0.808917  0.126507  0.672057  1
  C  C12  1  0.180969  0.376872  0.363572  1
  C  C13  1  0.819031  0.876872  0.136428  1
  C  C14  1  0.180969  0.123128  0.863572  1
  C  C15  1  0.819031  0.623128  0.636428  1
  O  O16  1  0.413768  0.380600  0.416338  1
  O  O17  1  0.136436  0.372417  0.266346  1
  O  O18  1  0.994912  0.877455  0.094019  1
  O  O19  1  0.413768  0.119400  0.916338  1
  O  O20  1  0.005088  0.377455  0.405981  1
  O  O21  1  0.863564  0.872417  0.233654  1
  O  O22  1  0.136436  0.127583  0.766346  1
  O  O23  1  0.994912  0.622545  0.594019  1
  O  O24  1  0.586232  0.880600  0.083662  1
  O  O25  1  0.005088  0.122545  0.905981  1
  O  O26  1  0.863564  0.627583  0.733654  1
  O  O27  1  0.586232  0.619400  0.583662  1
  F  F28  1  0.655383  0.951537  0.728056  1
  F  F29  1  0.678814  0.277452  0.736845  1
  F  F30  1  0.481653  0.127907  0.568069  1
  F  F31  1  0.518347  0.627907  0.931931  1
  F  F32  1  0.926336  0.510139  0.089313  1
  F  F33  1  0.110274  0.711147  0.423706  1
  F  F34  1  0.321186  0.777452  0.763155  1
  F  F35  1  0.344617  0.451537  0.771944  1
  F  F36  1  0.889726  0.211147  0.076294  1
  F  F37  1  0.073664  0.010139  0.410687  1
  F  F38  1  0.926336  0.989861  0.589313  1
  F  F39  1  0.110274  0.788853  0.923706  1
  F  F40  1  0.655383  0.548463  0.228056  1
  F  F41  1  0.678814  0.222548  0.236845  1
  F  F42  1  0.889726  0.288853  0.576294  1
  F  F43  1  0.073664  0.489861  0.910687  1
  F  F44  1  0.481653  0.372093  0.068069  1
  F  F45  1  0.518347  0.872093  0.431931  1
  F  F46  1  0.321186  0.722548  0.263155  1
  F  F47  1  0.344617  0.048463  0.271944  1
