# generated using pymatgen
data_LiFeCuS2
_symmetry_space_group_name_H-M   'P 1'
_cell_length_a   3.80745964
_cell_length_b   3.80745964
_cell_length_c   6.25795814
_cell_angle_alpha   90.00000000
_cell_angle_beta   90.00000000
_cell_angle_gamma   120.00000000
_symmetry_Int_Tables_number   1
_chemical_formula_structural   LiFeCuS2
_chemical_formula_sum   'Li1 Fe1 Cu1 S2'
_cell_volume   78.56586597
_cell_formula_units_Z   1
loop_
 _symmetry_equiv_pos_site_id
 _symmetry_equiv_pos_as_xyz
  1  'x, y, z'
loop_
 _atom_site_type_symbol
 _atom_site_label
 _atom_site_symmetry_multiplicity
 _atom_site_fract_x
 _atom_site_fract_y
 _atom_site_fract_z
 _atom_site_occupancy
  Li  Li0  1  0.333333  0.666667  0.012363  1
  Fe  Fe1  1  0.666667  0.333333  0.622400  1
  Cu  Cu2  1  0.000000  0.000000  0.362714  1
  S  S3  1  0.666667  0.333333  0.247168  1
  S  S4  1  0.000000  0.000000  0.755355  1
