# generated using pymatgen
data_Rb17Fe5O16
_symmetry_space_group_name_H-M   'P 1'
_cell_length_a   19.16534889
_cell_length_b   19.16534889
_cell_length_c   7.12597981
_cell_angle_alpha   84.74882204
_cell_angle_beta   95.25117796
_cell_angle_gamma   21.39201474
_symmetry_Int_Tables_number   1
_chemical_formula_structural   Rb17Fe5O16
_chemical_formula_sum   'Rb17 Fe5 O16'
_cell_volume   830.55774383
_cell_formula_units_Z   1
loop_
 _symmetry_equiv_pos_site_id
 _symmetry_equiv_pos_as_xyz
  1  'x, y, z'
loop_
 _atom_site_type_symbol
 _atom_site_label
 _atom_site_symmetry_multiplicity
 _atom_site_fract_x
 _atom_site_fract_y
 _atom_site_fract_z
 _atom_site_occupancy
  Rb  Rb0  1  0.403726  0.318850  0.946270  1
  Rb  Rb1  1  0.490577  0.416881  0.926790  1
  Rb  Rb2  1  0.316316  0.216793  0.928920  1
  Rb  Rb3  1  0.082375  0.088221  0.807150  1
  Rb  Rb4  1  0.168743  0.168761  0.531675  1
  Rb  Rb5  1  0.318157  0.408423  0.403561  1
  Rb  Rb6  1  0.222871  0.325844  0.384912  1
  Rb  Rb7  1  0.410554  0.498110  0.386352  1
  Rb  Rb8  1  0.681150  0.596274  0.946270  1
  Rb  Rb9  1  0.583119  0.509423  0.926790  1
  Rb  Rb10  1  0.783207  0.683684  0.928920  1
  Rb  Rb11  1  0.911779  0.917625  0.807150  1
  Rb  Rb12  1  0.831239  0.831257  0.531675  1
  Rb  Rb13  1  0.591577  0.681843  0.403561  1
  Rb  Rb14  1  0.674156  0.777129  0.384912  1
  Rb  Rb15  1  0.501890  0.589446  0.386352  1
  Rb  Rb16  1  0.997427  0.002573  0.514699  1
  Fe  Fe17  1  0.996231  0.003769  0.010972  1
  Fe  Fe18  1  0.086043  0.092459  0.310044  1
  Fe  Fe19  1  0.177373  0.179397  0.017194  1
  Fe  Fe20  1  0.907541  0.913957  0.310044  1
  Fe  Fe21  1  0.820603  0.822627  0.017194  1
  O  O22  1  0.072602  0.557233  0.999491  1
  O  O23  1  0.160249  0.655856  0.583286  1
  O  O24  1  0.442767  0.927398  0.999491  1
  O  O25  1  0.253410  0.746590  0.993080  1
  O  O26  1  0.557334  0.073914  0.744410  1
  O  O27  1  0.213575  0.212397  0.215897  1
  O  O28  1  0.040001  0.046694  0.169505  1
  O  O29  1  0.129006  0.129494  0.133385  1
  O  O30  1  0.344144  0.839751  0.583286  1
  O  O31  1  0.648425  0.167265  0.329218  1
  O  O32  1  0.926086  0.442666  0.744410  1
  O  O33  1  0.739597  0.260403  0.738632  1
  O  O34  1  0.787603  0.786425  0.215897  1
  O  O35  1  0.953306  0.959999  0.169505  1
  O  O36  1  0.870506  0.870994  0.133385  1
  O  O37  1  0.832735  0.351575  0.329218  1
