# generated using pymatgen
data_NiSn2H12(OF)6
_symmetry_space_group_name_H-M   'P 1'
_cell_length_a   6.82189204
_cell_length_b   6.98886056
_cell_length_c   7.06164070
_cell_angle_alpha   77.45168902
_cell_angle_beta   72.56852334
_cell_angle_gamma   78.40944160
_symmetry_Int_Tables_number   1
_chemical_formula_structural   NiSn2H12(OF)6
_chemical_formula_sum   'Ni1 Sn2 H12 O6 F6'
_cell_volume   310.19200471
_cell_formula_units_Z   1
loop_
 _symmetry_equiv_pos_site_id
 _symmetry_equiv_pos_as_xyz
  1  'x, y, z'
loop_
 _atom_site_type_symbol
 _atom_site_label
 _atom_site_symmetry_multiplicity
 _atom_site_fract_x
 _atom_site_fract_y
 _atom_site_fract_z
 _atom_site_occupancy
  Ni  Ni0  1  0.000000  0.000000  0.000000  1
  Sn  Sn1  1  0.664832  0.636564  0.668946  1
  Sn  Sn2  1  0.335168  0.363436  0.331054  1
  H  H3  1  0.909367  0.252141  0.252801  1
  H  H4  1  0.090633  0.747859  0.747199  1
  H  H5  1  0.747148  0.733492  0.077640  1
  H  H6  1  0.252852  0.266508  0.922360  1
  H  H7  1  0.761429  0.054279  0.749037  1
  H  H8  1  0.238571  0.945721  0.250963  1
  H  H9  1  0.790953  0.066995  0.361003  1
  H  H10  1  0.209047  0.933005  0.638997  1
  H  H11  1  0.921333  0.645570  0.194927  1
  H  H12  1  0.078667  0.354430  0.805073  1
  H  H13  1  0.647314  0.191525  0.915693  1
  H  H14  1  0.352686  0.808475  0.084307  1
  O  O15  1  0.829445  0.158848  0.231185  1
  O  O16  1  0.170555  0.841152  0.768815  1
  O  O17  1  0.833379  0.768918  0.151844  1
  O  O18  1  0.166621  0.231082  0.848156  1
  O  O19  1  0.785394  0.135133  0.836913  1
  O  O20  1  0.214606  0.864867  0.163087  1
  F  F21  1  0.721038  0.932253  0.587193  1
  F  F22  1  0.278962  0.067747  0.412807  1
  F  F23  1  0.577907  0.693844  0.967342  1
  F  F24  1  0.422093  0.306156  0.032658  1
  F  F25  1  0.967481  0.574097  0.710093  1
  F  F26  1  0.032519  0.425903  0.289907  1
