# generated using pymatgen
data_Li2MgCo13O28
_symmetry_space_group_name_H-M   'P 1'
_cell_length_a   7.55206027
_cell_length_b   8.23274238
_cell_length_c   8.70470514
_cell_angle_alpha   100.21294480
_cell_angle_beta   104.41000767
_cell_angle_gamma   105.29158936
_symmetry_Int_Tables_number   1
_chemical_formula_structural   Li2MgCo13O28
_chemical_formula_sum   'Li2 Mg1 Co13 O28'
_cell_volume   488.22913795
_cell_formula_units_Z   1
loop_
 _symmetry_equiv_pos_site_id
 _symmetry_equiv_pos_as_xyz
  1  'x, y, z'
loop_
 _atom_site_type_symbol
 _atom_site_label
 _atom_site_symmetry_multiplicity
 _atom_site_fract_x
 _atom_site_fract_y
 _atom_site_fract_z
 _atom_site_occupancy
  Li  Li0  1  0.503614  0.000722  0.499998  1
  Li  Li1  1  0.351835  0.567559  0.924563  1
  Mg  Mg2  1  0.502064  0.504446  0.504761  1
  Co  Co3  1  0.716953  0.149596  0.863084  1
  Co  Co4  1  0.355869  0.068341  0.927991  1
  Co  Co5  1  0.000575  0.000673  0.001217  1
  Co  Co6  1  0.067145  0.204926  0.779298  1
  Co  Co7  1  0.427432  0.283258  0.714922  1
  Co  Co8  1  0.789956  0.361951  0.647880  1
  Co  Co9  1  0.136759  0.420881  0.564832  1
  Co  Co10  1  0.860098  0.573767  0.428964  1
  Co  Co11  1  0.209813  0.635571  0.350086  1
  Co  Co12  1  0.573587  0.714861  0.285006  1
  Co  Co13  1  0.929865  0.789476  0.215556  1
  Co  Co14  1  0.646599  0.937093  0.077681  1
  Co  Co15  1  0.285112  0.855747  0.141469  1
  O  O16  1  0.914003  0.009306  0.187796  1
  O  O17  1  0.985772  0.218340  0.970167  1
  O  O18  1  0.449363  0.065713  0.743118  1
  O  O19  1  0.794900  0.135394  0.672353  1
  O  O20  1  0.623323  0.151198  0.046290  1
  O  O21  1  0.269397  0.074479  0.113334  1
  O  O22  1  0.333931  0.287052  0.898483  1
  O  O23  1  0.698761  0.364049  0.835041  1
  O  O24  1  0.523418  0.266087  0.538961  1
  O  O25  1  0.155257  0.200135  0.597467  1
  O  O26  1  0.872390  0.352145  0.456499  1
  O  O27  1  0.060036  0.427605  0.759290  1
  O  O28  1  0.789869  0.575803  0.620329  1
  O  O29  1  0.397657  0.496218  0.699457  1
  O  O30  1  0.600018  0.506716  0.306346  1
  O  O31  1  0.212767  0.422229  0.378424  1
  O  O32  1  0.943806  0.571412  0.239936  1
  O  O33  1  0.127159  0.643172  0.539167  1
  O  O34  1  0.844190  0.795814  0.399525  1
  O  O35  1  0.475911  0.736599  0.461056  1
  O  O36  1  0.303192  0.636430  0.159083  1
  O  O37  1  0.659240  0.715886  0.098043  1
  O  O38  1  0.731457  0.928913  0.891172  1
  O  O39  1  0.376814  0.849199  0.957467  1
  O  O40  1  0.201472  0.862534  0.326908  1
  O  O41  1  0.551777  0.937340  0.260960  1
  O  O42  1  0.016254  0.782459  0.028769  1
  O  O43  1  0.088438  0.989904  0.814325  1
