# generated using pymatgen
data_Li3Fe8(BO3)8
_symmetry_space_group_name_H-M   'P 1'
_cell_length_a   5.24353125
_cell_length_b   9.12033106
_cell_length_c   11.41571567
_cell_angle_alpha   113.06072936
_cell_angle_beta   103.10921189
_cell_angle_gamma   89.34529906
_symmetry_Int_Tables_number   1
_chemical_formula_structural   Li3Fe8(BO3)8
_chemical_formula_sum   'Li3 Fe8 B8 O24'
_cell_volume   487.38624764
_cell_formula_units_Z   1
loop_
 _symmetry_equiv_pos_site_id
 _symmetry_equiv_pos_as_xyz
  1  'x, y, z'
loop_
 _atom_site_type_symbol
 _atom_site_label
 _atom_site_symmetry_multiplicity
 _atom_site_fract_x
 _atom_site_fract_y
 _atom_site_fract_z
 _atom_site_occupancy
  Li  Li0  1  0.029321  0.034167  0.406570  1
  Li  Li1  1  0.490107  0.506722  0.660573  1
  Li  Li2  1  0.766899  0.747707  0.159268  1
  Fe  Fe3  1  0.012423  0.359825  0.370880  1
  Fe  Fe4  1  0.269146  0.938694  0.886993  1
  Fe  Fe5  1  0.493242  0.147600  0.633487  1
  Fe  Fe6  1  0.231145  0.559148  0.124129  1
  Fe  Fe7  1  0.760374  0.434841  0.880770  1
  Fe  Fe8  1  0.517217  0.840858  0.383627  1
  Fe  Fe9  1  0.976622  0.660882  0.630998  1
  Fe  Fe10  1  0.750076  0.066382  0.125791  1
  B  B11  1  0.032588  0.687717  0.374279  1
  B  B12  1  0.255074  0.604711  0.872202  1
  B  B13  1  0.472085  0.813786  0.632139  1
  B  B14  1  0.241657  0.885039  0.128585  1
  B  B15  1  0.520175  0.189253  0.385407  1
  B  B16  1  0.767146  0.098111  0.872040  1
  B  B17  1  0.979482  0.316418  0.619363  1
  B  B18  1  0.728596  0.406588  0.133447  1
  O  O19  1  0.025000  0.084120  0.873874  1
  O  O20  1  0.106514  0.713255  0.828173  1
  O  O21  1  0.141445  0.529855  0.934831  1
  O  O22  1  0.126971  0.190044  0.611319  1
  O  O23  1  0.069663  0.437279  0.586042  1
  O  O24  1  0.243344  0.833335  0.676864  1
  O  O25  1  0.251646  0.648489  0.321633  1
  O  O26  1  0.495167  0.576440  0.847280  1
  O  O27  1  0.629119  0.200943  0.820711  1
  O  O28  1  0.440044  0.073900  0.426955  1
  O  O29  1  0.362465  0.306461  0.379566  1
  O  O30  1  0.635010  0.013925  0.921809  1
  O  O31  1  0.356706  0.974187  0.076307  1
  O  O32  1  0.615296  0.685672  0.629523  1
  O  O33  1  0.550530  0.922467  0.587475  1
  O  O34  1  0.400382  0.776225  0.165705  1
  O  O35  1  0.469235  0.407200  0.126879  1
  O  O36  1  0.738873  0.330242  0.654378  1
  O  O37  1  0.766258  0.179553  0.353605  1
  O  O38  1  0.954446  0.590056  0.432737  1
  O  O39  1  0.897049  0.812482  0.365198  1
  O  O40  1  0.849363  0.508981  0.092657  1
  O  O41  1  0.880200  0.306220  0.182204  1
  O  O42  1  0.991459  0.901036  0.145129  1
