# generated using pymatgen
data_Li2V2F7
_symmetry_space_group_name_H-M   'P 1'
_cell_length_a   5.46706173
_cell_length_b   6.90767176
_cell_length_c   8.57254352
_cell_angle_alpha   70.61792334
_cell_angle_beta   75.83051822
_cell_angle_gamma   85.21299759
_symmetry_Int_Tables_number   1
_chemical_formula_structural   Li2V2F7
_chemical_formula_sum   'Li4 V4 F14'
_cell_volume   296.09968107
_cell_formula_units_Z   2
loop_
 _symmetry_equiv_pos_site_id
 _symmetry_equiv_pos_as_xyz
  1  'x, y, z'
loop_
 _atom_site_type_symbol
 _atom_site_label
 _atom_site_symmetry_multiplicity
 _atom_site_fract_x
 _atom_site_fract_y
 _atom_site_fract_z
 _atom_site_occupancy
  Li  Li0  1  0.333384  0.763489  0.896106  1
  Li  Li1  1  0.866769  0.979374  0.745652  1
  Li  Li2  1  0.133231  0.020626  0.254348  1
  Li  Li3  1  0.666616  0.236511  0.103894  1
  V  V4  1  0.293832  0.274439  0.821077  1
  V  V5  1  0.819583  0.516231  0.672224  1
  V  V6  1  0.180417  0.483769  0.327776  1
  V  V7  1  0.706168  0.725561  0.178923  1
  F  F8  1  0.633976  0.820637  0.941787  1
  F  F9  1  0.909391  0.386288  0.891145  1
  F  F10  1  0.459996  0.569723  0.773884  1
  F  F11  1  0.929662  0.784342  0.626774  1
  F  F12  1  0.680770  0.243226  0.703758  1
  F  F13  1  0.162437  0.007258  0.813646  1
  F  F14  1  0.183666  0.423055  0.576568  1
  F  F15  1  0.816334  0.576945  0.423432  1
  F  F16  1  0.837563  0.992742  0.186354  1
  F  F17  1  0.319230  0.756774  0.296242  1
  F  F18  1  0.070338  0.215658  0.373226  1
  F  F19  1  0.540004  0.430277  0.226116  1
  F  F20  1  0.090609  0.613712  0.108855  1
  F  F21  1  0.366024  0.179363  0.058213  1
