# generated using pymatgen
data_Li5Mn8(BO3)8
_symmetry_space_group_name_H-M   'P 1'
_cell_length_a   5.33506817
_cell_length_b   9.02482197
_cell_length_c   11.51976581
_cell_angle_alpha   112.44387821
_cell_angle_beta   101.32618677
_cell_angle_gamma   90.50815643
_symmetry_Int_Tables_number   1
_chemical_formula_structural   Li5Mn8(BO3)8
_chemical_formula_sum   'Li5 Mn8 B8 O24'
_cell_volume   500.50153461
_cell_formula_units_Z   1
loop_
 _symmetry_equiv_pos_site_id
 _symmetry_equiv_pos_as_xyz
  1  'x, y, z'
loop_
 _atom_site_type_symbol
 _atom_site_label
 _atom_site_symmetry_multiplicity
 _atom_site_fract_x
 _atom_site_fract_y
 _atom_site_fract_z
 _atom_site_occupancy
  Li  Li0  1  0.932210  0.063435  0.165184  1
  Li  Li1  1  0.872399  0.708003  0.422176  1
  Li  Li2  1  0.697202  0.849015  0.662910  1
  Li  Li3  1  0.592601  0.455662  0.922526  1
  Li  Li4  1  0.353405  0.219663  0.406510  1
  Mn  Mn5  1  0.914720  0.711288  0.128412  1
  Mn  Mn6  1  0.847576  0.353027  0.377984  1
  Mn  Mn7  1  0.654204  0.176104  0.625450  1
  Mn  Mn8  1  0.405678  0.233290  0.126966  1
  Mn  Mn9  1  0.604045  0.793666  0.890078  1
  Mn  Mn10  1  0.353105  0.864515  0.383117  1
  Mn  Mn11  1  0.174611  0.624609  0.632719  1
  Mn  Mn12  1  0.084860  0.246523  0.868707  1
  B  B13  1  0.878425  0.367253  0.112525  1
  B  B14  1  0.865865  0.014024  0.377631  1
  B  B15  1  0.631146  0.496637  0.617204  1
  B  B16  1  0.412767  0.902506  0.146540  1
  B  B17  1  0.603830  0.120681  0.863347  1
  B  B18  1  0.365732  0.530350  0.386569  1
  B  B19  1  0.146653  0.974128  0.623022  1
  B  B20  1  0.098441  0.592860  0.870719  1
  O  O21  1  0.996386  0.134500  0.363308  1
  O  O22  1  0.960727  0.862912  0.351537  1
  O  O23  1  0.809772  0.271226  0.174421  1
  O  O24  1  0.753079  0.495572  0.109189  1
  O  O25  1  0.867645  0.478797  0.583050  1
  O  O26  1  0.639443  0.874180  0.099994  1
  O  O27  1  0.875329  0.633657  0.918593  1
  O  O28  1  0.632747  0.041815  0.418577  1
  O  O29  1  0.701545  0.240400  0.827112  1
  O  O30  1  0.711653  0.980938  0.842839  1
  O  O31  1  0.503497  0.662148  0.393471  1
  O  O32  1  0.444083  0.375957  0.335574  1
  O  O33  1  0.550712  0.651598  0.665076  1
  O  O34  1  0.318521  0.796132  0.196949  1
  O  O35  1  0.476526  0.363602  0.594665  1
  O  O36  1  0.275826  0.026916  0.142518  1
  O  O37  1  0.373025  0.971939  0.573822  1
  O  O38  1  0.082272  0.317553  0.051393  1
  O  O39  1  0.398519  0.158057  0.922420  1
  O  O40  1  0.137849  0.545343  0.434919  1
  O  O41  1  0.225654  0.466236  0.876956  1
  O  O42  1  0.201461  0.694378  0.818147  1
  O  O43  1  0.053460  0.123351  0.680084  1
  O  O44  1  0.021327  0.835120  0.610375  1
