# generated using pymatgen
data_Li3Fe2Co3O10
_symmetry_space_group_name_H-M   'P 1'
_cell_length_a   5.25802789
_cell_length_b   2.87658367
_cell_length_c   23.33946382
_cell_angle_alpha   90.00000000
_cell_angle_beta   93.93938153
_cell_angle_gamma   90.00000000
_symmetry_Int_Tables_number   1
_chemical_formula_structural   Li3Fe2Co3O10
_chemical_formula_sum   'Li6 Fe4 Co6 O20'
_cell_volume   352.17899199
_cell_formula_units_Z   2
loop_
 _symmetry_equiv_pos_site_id
 _symmetry_equiv_pos_as_xyz
  1  'x, y, z'
loop_
 _atom_site_type_symbol
 _atom_site_label
 _atom_site_symmetry_multiplicity
 _atom_site_fract_x
 _atom_site_fract_y
 _atom_site_fract_z
 _atom_site_occupancy
  Li  Li0  1  0.198096  0.000000  0.604166  1
  Li  Li1  1  0.205946  0.500000  0.100852  1
  Li  Li2  1  0.563783  0.000000  0.787746  1
  Li  Li3  1  0.840215  0.500000  0.912884  1
  Li  Li4  1  0.571134  0.500000  0.286528  1
  Li  Li5  1  0.831260  0.000000  0.411155  1
  Fe  Fe6  1  0.097132  0.000000  0.301452  1
  Fe  Fe7  1  0.500595  0.000000  0.503907  1
  Fe  Fe8  1  0.694038  0.000000  0.095829  1
  Fe  Fe9  1  0.907982  0.500000  0.198471  1
  Co  Co10  1  0.092021  0.500000  0.800493  1
  Co  Co11  1  0.306086  0.000000  0.896123  1
  Co  Co12  1  0.489192  0.500000  0.995099  1
  Co  Co13  1  0.311558  0.500000  0.401816  1
  Co  Co14  1  0.703373  0.500000  0.604426  1
  Co  Co15  1  0.897115  0.000000  0.701969  1
  O  O16  1  0.000876  0.500000  0.653174  1
  O  O17  1  0.206402  0.500000  0.942557  1
  O  O18  1  0.191054  0.000000  0.754579  1
  O  O19  1  0.021077  0.000000  0.144820  1
  O  O20  1  0.194763  0.000000  0.446496  1
  O  O21  1  0.405441  0.500000  0.846357  1
  O  O22  1  0.219863  0.500000  0.254367  1
  O  O23  1  0.392766  0.500000  0.557695  1
  O  O24  1  0.605761  0.000000  0.947333  1
  O  O25  1  0.430273  0.000000  0.356201  1
  O  O26  1  0.599141  0.000000  0.649997  1
  O  O27  1  0.371207  0.000000  0.039863  1
  O  O28  1  0.616084  0.500000  0.450068  1
  O  O29  1  0.791037  0.500000  0.750577  1
  O  O30  1  0.574568  0.500000  0.142425  1
  O  O31  1  0.817104  0.000000  0.559391  1
  O  O32  1  0.989780  0.000000  0.848957  1
  O  O33  1  0.777573  0.000000  0.251302  1
  O  O34  1  0.784605  0.500000  0.042954  1
  O  O35  1  0.998736  0.500000  0.357911  1
