# generated using pymatgen
data_Li3Mn3SbO8
_symmetry_space_group_name_H-M   'P 1'
_cell_length_a   6.12094252
_cell_length_b   6.12094252
_cell_length_c   6.12094252
_cell_angle_alpha   60.89209455
_cell_angle_beta   60.89209455
_cell_angle_gamma   60.89209455
_symmetry_Int_Tables_number   1
_chemical_formula_structural   Li3Mn3SbO8
_chemical_formula_sum   'Li3 Mn3 Sb1 O8'
_cell_volume   165.41940760
_cell_formula_units_Z   1
loop_
 _symmetry_equiv_pos_site_id
 _symmetry_equiv_pos_as_xyz
  1  'x, y, z'
loop_
 _atom_site_type_symbol
 _atom_site_label
 _atom_site_symmetry_multiplicity
 _atom_site_fract_x
 _atom_site_fract_y
 _atom_site_fract_z
 _atom_site_occupancy
  Li  Li0  1  0.000000  0.000000  0.500000  1
  Li  Li1  1  0.000000  0.500000  1.000000  1
  Li  Li2  1  0.500000  0.000000  0.000000  1
  Mn  Mn3  1  0.500000  0.500000  0.000000  1
  Mn  Mn4  1  0.500000  0.000000  0.500000  1
  Mn  Mn5  1  1.000000  0.500000  0.500000  1
  Sb  Sb6  1  0.000000  0.000000  0.000000  1
  O  O7  1  0.729714  0.729714  0.729714  1
  O  O8  1  0.230496  0.230496  0.770538  1
  O  O9  1  0.230496  0.770538  0.230496  1
  O  O10  1  0.270286  0.270286  0.270286  1
  O  O11  1  0.770538  0.230496  0.230496  1
  O  O12  1  0.769504  0.769504  0.229462  1
  O  O13  1  0.769504  0.229462  0.769504  1
  O  O14  1  0.229462  0.769504  0.769504  1
