# generated using pymatgen
data_Li3Fe2OF5
_symmetry_space_group_name_H-M   'P 1'
_cell_length_a   5.25764254
_cell_length_b   5.25764254
_cell_length_c   9.44360763
_cell_angle_alpha   79.53584283
_cell_angle_beta   100.46415717
_cell_angle_gamma   70.84590246
_symmetry_Int_Tables_number   1
_chemical_formula_structural   Li3Fe2OF5
_chemical_formula_sum   'Li6 Fe4 O2 F10'
_cell_volume   234.17688742
_cell_formula_units_Z   2
loop_
 _symmetry_equiv_pos_site_id
 _symmetry_equiv_pos_as_xyz
  1  'x, y, z'
loop_
 _atom_site_type_symbol
 _atom_site_label
 _atom_site_symmetry_multiplicity
 _atom_site_fract_x
 _atom_site_fract_y
 _atom_site_fract_z
 _atom_site_occupancy
  Li  Li0  1  0.458887  0.458887  0.000000  1
  Li  Li1  1  0.877768  0.534743  0.844464  1
  Li  Li2  1  0.206086  0.206086  0.500000  1
  Li  Li3  1  0.782747  0.127100  0.648345  1
  Li  Li4  1  0.127100  0.782747  0.351655  1
  Li  Li5  1  0.534743  0.877768  0.155536  1
  Fe  Fe6  1  0.953422  0.953422  0.000000  1
  Fe  Fe7  1  0.704461  0.704461  0.500000  1
  Fe  Fe8  1  0.376525  0.029930  0.847483  1
  Fe  Fe9  1  0.029930  0.376525  0.152517  1
  O  O10  1  0.704565  0.704565  0.000000  1
  O  O11  1  0.205554  0.205554  0.000000  1
  F  F12  1  0.111846  0.788225  0.832621  1
  F  F13  1  0.470036  0.470036  0.500000  1
  F  F14  1  0.642187  0.277056  0.836795  1
  F  F15  1  0.028862  0.338538  0.663155  1
  F  F16  1  0.338538  0.028862  0.336845  1
  F  F17  1  0.547716  0.904494  0.663917  1
  F  F18  1  0.938770  0.938770  0.500000  1
  F  F19  1  0.788225  0.111846  0.167379  1
  F  F20  1  0.904494  0.547716  0.336083  1
  F  F21  1  0.277056  0.642187  0.163205  1
