# generated using pymatgen
data_Rb4SiO4
_symmetry_space_group_name_H-M   'P 1'
_cell_length_a   6.83044033
_cell_length_b   6.91789231
_cell_length_c   9.46113692
_cell_angle_alpha   81.89136423
_cell_angle_beta   73.47456605
_cell_angle_gamma   62.45078222
_symmetry_Int_Tables_number   1
_chemical_formula_structural   Rb4SiO4
_chemical_formula_sum   'Rb8 Si2 O8'
_cell_volume   379.97328540
_cell_formula_units_Z   2
loop_
 _symmetry_equiv_pos_site_id
 _symmetry_equiv_pos_as_xyz
  1  'x, y, z'
loop_
 _atom_site_type_symbol
 _atom_site_label
 _atom_site_symmetry_multiplicity
 _atom_site_fract_x
 _atom_site_fract_y
 _atom_site_fract_z
 _atom_site_occupancy
  Rb  Rb0  1  0.244408  0.724799  0.963096  1
  Rb  Rb1  1  0.497716  0.731573  0.558906  1
  Rb  Rb2  1  0.634782  0.788030  0.136601  1
  Rb  Rb3  1  0.063918  0.761650  0.368089  1
  Rb  Rb4  1  0.936082  0.238350  0.631911  1
  Rb  Rb5  1  0.365218  0.211970  0.863399  1
  Rb  Rb6  1  0.502284  0.268427  0.441094  1
  Rb  Rb7  1  0.755592  0.275201  0.036904  1
  Si  Si8  1  0.859403  0.764270  0.748115  1
  Si  Si9  1  0.140597  0.235730  0.251885  1
  O  O10  1  0.851632  0.922018  0.871057  1
  O  O11  1  0.729538  0.934355  0.622431  1
  O  O12  1  0.710070  0.625777  0.831820  1
  O  O13  1  0.870872  0.407344  0.331597  1
  O  O14  1  0.129128  0.592656  0.668403  1
  O  O15  1  0.289930  0.374223  0.168180  1
  O  O16  1  0.270462  0.065645  0.377569  1
  O  O17  1  0.148368  0.077982  0.128943  1
