# generated using pymatgen
data_Li2SnP2O7
_symmetry_space_group_name_H-M   'P 1'
_cell_length_a   5.53638677
_cell_length_b   14.44792417
_cell_length_c   9.56806082
_cell_angle_alpha   90.00000000
_cell_angle_beta   123.82712946
_cell_angle_gamma   90.00000000
_symmetry_Int_Tables_number   1
_chemical_formula_structural   Li2SnP2O7
_chemical_formula_sum   'Li8 Sn4 P8 O28'
_cell_volume   635.78602424
_cell_formula_units_Z   4
loop_
 _symmetry_equiv_pos_site_id
 _symmetry_equiv_pos_as_xyz
  1  'x, y, z'
loop_
 _atom_site_type_symbol
 _atom_site_label
 _atom_site_symmetry_multiplicity
 _atom_site_fract_x
 _atom_site_fract_y
 _atom_site_fract_z
 _atom_site_occupancy
  Li  Li0  1  0.945688  0.092101  0.649922  1
  Li  Li1  1  0.482314  0.683828  0.683486  1
  Li  Li2  1  0.517686  0.183828  0.816514  1
  Li  Li3  1  0.054312  0.592101  0.850078  1
  Li  Li4  1  0.945688  0.407899  0.149922  1
  Li  Li5  1  0.482314  0.816172  0.183486  1
  Li  Li6  1  0.517686  0.316172  0.316514  1
  Li  Li7  1  0.054312  0.907899  0.350078  1
  Sn  Sn8  1  0.968210  0.342895  0.770595  1
  Sn  Sn9  1  0.031790  0.842895  0.729405  1
  Sn  Sn10  1  0.968210  0.157105  0.270595  1
  Sn  Sn11  1  0.031790  0.657105  0.229405  1
  P  P12  1  0.254863  0.326183  0.527880  1
  P  P13  1  0.510805  0.977403  0.720125  1
  P  P14  1  0.489195  0.477403  0.779875  1
  P  P15  1  0.745137  0.826183  0.972120  1
  P  P16  1  0.254863  0.173817  0.027880  1
  P  P17  1  0.510805  0.522597  0.220125  1
  P  P18  1  0.489195  0.022597  0.279875  1
  P  P19  1  0.745137  0.673817  0.472120  1
  O  O20  1  0.308778  0.432892  0.584138  1
  O  O21  1  0.525766  0.294475  0.529946  1
  O  O22  1  0.219000  0.268659  0.650461  1
  O  O23  1  0.023144  0.679591  0.652065  1
  O  O24  1  0.294133  0.900666  0.607320  1
  O  O25  1  0.748032  0.994636  0.688310  1
  O  O26  1  0.362419  0.062877  0.731191  1
  O  O27  1  0.637581  0.562877  0.768809  1
  O  O28  1  0.251968  0.494636  0.811690  1
  O  O29  1  0.705867  0.400666  0.892680  1
  O  O30  1  0.781000  0.768659  0.849539  1
  O  O31  1  0.976856  0.179591  0.847935  1
  O  O32  1  0.474234  0.794475  0.970054  1
  O  O33  1  0.691222  0.932892  0.915862  1
  O  O34  1  0.308778  0.067108  0.084138  1
  O  O35  1  0.525766  0.205525  0.029946  1
  O  O36  1  0.023144  0.820409  0.152065  1
  O  O37  1  0.219000  0.231341  0.150461  1
  O  O38  1  0.294133  0.599334  0.107320  1
  O  O39  1  0.748032  0.505364  0.188310  1
  O  O40  1  0.362419  0.437123  0.231191  1
  O  O41  1  0.637581  0.937123  0.268809  1
  O  O42  1  0.251968  0.005364  0.311690  1
  O  O43  1  0.705867  0.099334  0.392680  1
  O  O44  1  0.976856  0.320409  0.347935  1
  O  O45  1  0.781000  0.731341  0.349539  1
  O  O46  1  0.474234  0.705525  0.470054  1
  O  O47  1  0.691222  0.567108  0.415862  1
