# generated using pymatgen
data_Li2VP4(H4O5)4
_symmetry_space_group_name_H-M   'P 1'
_cell_length_a   7.19374483
_cell_length_b   10.70935970
_cell_length_c   12.06450076
_cell_angle_alpha   90.00000000
_cell_angle_beta   115.72048100
_cell_angle_gamma   90.00000000
_symmetry_Int_Tables_number   1
_chemical_formula_structural   Li2VP4(H4O5)4
_chemical_formula_sum   'Li4 V2 P8 H32 O40'
_cell_volume   837.36548603
_cell_formula_units_Z   2
loop_
 _symmetry_equiv_pos_site_id
 _symmetry_equiv_pos_as_xyz
  1  'x, y, z'
loop_
 _atom_site_type_symbol
 _atom_site_label
 _atom_site_symmetry_multiplicity
 _atom_site_fract_x
 _atom_site_fract_y
 _atom_site_fract_z
 _atom_site_occupancy
  Li  Li0  1  0.297628  0.340674  0.046418  1
  Li  Li1  1  0.702372  0.840674  0.453582  1
  Li  Li2  1  0.297628  0.159326  0.546418  1
  Li  Li3  1  0.702372  0.659326  0.953582  1
  V  V4  1  0.000000  0.000000  0.000000  1
  V  V5  1  0.000000  0.500000  0.500000  1
  P  P6  1  0.817522  0.240099  0.584043  1
  P  P7  1  0.182478  0.740099  0.915957  1
  P  P8  1  0.461264  0.044642  0.223369  1
  P  P9  1  0.538736  0.544642  0.276631  1
  P  P10  1  0.461264  0.455358  0.723369  1
  P  P11  1  0.538736  0.955358  0.776631  1
  P  P12  1  0.817522  0.259901  0.084043  1
  P  P13  1  0.182478  0.759901  0.415957  1
  H  H14  1  0.759810  0.594194  0.605008  1
  H  H15  1  0.832791  0.960351  0.691899  1
  H  H16  1  0.017932  0.566938  0.895483  1
  H  H17  1  0.993997  0.377642  0.810858  1
  H  H18  1  0.030289  0.169372  0.842449  1
  H  H19  1  0.363116  0.709098  0.289294  1
  H  H20  1  0.969711  0.669372  0.657551  1
  H  H21  1  0.006003  0.877642  0.689142  1
  H  H22  1  0.589785  0.413634  0.424210  1
  H  H23  1  0.600596  0.108142  0.445495  1
  H  H24  1  0.982068  0.066938  0.604517  1
  H  H25  1  0.167209  0.460351  0.808101  1
  H  H26  1  0.240190  0.094194  0.894992  1
  H  H27  1  0.399404  0.608142  0.054505  1
  H  H28  1  0.410215  0.913634  0.075790  1
  H  H29  1  0.636884  0.209098  0.210706  1
  H  H30  1  0.363116  0.790902  0.789294  1
  H  H31  1  0.589785  0.086366  0.924210  1
  H  H32  1  0.600596  0.391858  0.945495  1
  H  H33  1  0.759810  0.905806  0.105008  1
  H  H34  1  0.832791  0.539649  0.191899  1
  H  H35  1  0.017932  0.933062  0.395483  1
  H  H36  1  0.399404  0.891858  0.554505  1
  H  H37  1  0.410215  0.586366  0.575790  1
  H  H38  1  0.993997  0.122358  0.310858  1
  H  H39  1  0.030289  0.330628  0.342449  1
  H  H40  1  0.636884  0.290902  0.710706  1
  H  H41  1  0.969711  0.830628  0.157551  1
  H  H42  1  0.006003  0.622358  0.189142  1
  H  H43  1  0.982068  0.433062  0.104517  1
  H  H44  1  0.167209  0.039649  0.308101  1
  H  H45  1  0.240190  0.405806  0.394992  1
  O  O46  1  0.606220  0.167760  0.516588  1
  O  O47  1  0.852625  0.258110  0.717941  1
  O  O48  1  0.003519  0.656378  0.921676  1
  O  O49  1  0.231565  0.026431  0.185135  1
  O  O50  1  0.898022  0.937909  0.636239  1
  O  O51  1  0.859640  0.634421  0.580475  1
  O  O52  1  0.805516  0.360885  0.515294  1
  O  O53  1  0.194484  0.860885  0.984706  1
  O  O54  1  0.140360  0.134421  0.919525  1
  O  O55  1  0.101978  0.437909  0.863761  1
  O  O56  1  0.465948  0.460061  0.359819  1
  O  O57  1  0.512097  0.686658  0.307184  1
  O  O58  1  0.996481  0.156378  0.578324  1
  O  O59  1  0.399101  0.514788  0.142523  1
  O  O60  1  0.147375  0.758110  0.782059  1
  O  O61  1  0.600899  0.014788  0.357477  1
  O  O62  1  0.487903  0.186658  0.192816  1
  O  O63  1  0.393780  0.667760  0.983412  1
  O  O64  1  0.534052  0.960061  0.140181  1
  O  O65  1  0.231565  0.473569  0.685135  1
  O  O66  1  0.768435  0.526431  0.314865  1
  O  O67  1  0.465948  0.039939  0.859819  1
  O  O68  1  0.606220  0.332240  0.016588  1
  O  O69  1  0.512097  0.813342  0.807184  1
  O  O70  1  0.399101  0.985212  0.642523  1
  O  O71  1  0.852625  0.241890  0.217941  1
  O  O72  1  0.600899  0.485212  0.857477  1
  O  O73  1  0.003519  0.843622  0.421676  1
  O  O74  1  0.487903  0.313342  0.692816  1
  O  O75  1  0.534052  0.539939  0.640181  1
  O  O76  1  0.898022  0.562091  0.136239  1
  O  O77  1  0.859640  0.865579  0.080475  1
  O  O78  1  0.805516  0.139115  0.015294  1
  O  O79  1  0.194484  0.639115  0.484706  1
  O  O80  1  0.140360  0.365579  0.419525  1
  O  O81  1  0.101978  0.062091  0.363761  1
  O  O82  1  0.768435  0.973569  0.814865  1
  O  O83  1  0.996481  0.343622  0.078324  1
  O  O84  1  0.147375  0.741890  0.282059  1
  O  O85  1  0.393780  0.832240  0.483412  1
