# generated using pymatgen
data_Li4Ti5V3O16
_symmetry_space_group_name_H-M   'P 1'
_cell_length_a   5.95983553
_cell_length_b   5.95983553
_cell_length_c   9.63991772
_cell_angle_alpha   89.93027293
_cell_angle_beta   90.06972707
_cell_angle_gamma   120.09224482
_symmetry_Int_Tables_number   1
_chemical_formula_structural   Li4Ti5V3O16
_chemical_formula_sum   'Li4 Ti5 V3 O16'
_cell_volume   296.25633353
_cell_formula_units_Z   1
loop_
 _symmetry_equiv_pos_site_id
 _symmetry_equiv_pos_as_xyz
  1  'x, y, z'
loop_
 _atom_site_type_symbol
 _atom_site_label
 _atom_site_symmetry_multiplicity
 _atom_site_fract_x
 _atom_site_fract_y
 _atom_site_fract_z
 _atom_site_occupancy
  Li  Li0  1  0.664443  0.335557  0.104053  1
  Li  Li1  1  0.998840  0.001160  0.005852  1
  Li  Li2  1  0.005275  0.994725  0.506431  1
  Li  Li3  1  0.333098  0.666902  0.602692  1
  Ti  Ti4  1  0.836857  0.651881  0.780020  1
  Ti  Ti5  1  0.670036  0.329964  0.500308  1
  Ti  Ti6  1  0.348119  0.163143  0.780020  1
  Ti  Ti7  1  0.174787  0.825213  0.272782  1
  Ti  Ti8  1  0.344449  0.655551  0.003297  1
  V  V9  1  0.826013  0.173987  0.789786  1
  V  V10  1  0.657590  0.827546  0.288624  1
  V  V11  1  0.172454  0.342410  0.288624  1
  O  O12  1  0.831189  0.657096  0.405762  1
  O  O13  1  0.519042  0.480958  0.665267  1
  O  O14  1  0.654826  0.345174  0.898663  1
  O  O15  1  0.003770  0.996230  0.695024  1
  O  O16  1  0.002394  0.997606  0.194149  1
  O  O17  1  0.342904  0.168811  0.405762  1
  O  O18  1  0.959895  0.493840  0.654784  1
  O  O19  1  0.506160  0.040105  0.654784  1
  O  O20  1  0.168018  0.831982  0.900990  1
  O  O21  1  0.833692  0.166308  0.407603  1
  O  O22  1  0.472554  0.965168  0.159539  1
  O  O23  1  0.034832  0.527446  0.159539  1
  O  O24  1  0.326928  0.673072  0.396839  1
  O  O25  1  0.660069  0.824464  0.906939  1
  O  O26  1  0.477155  0.522845  0.156745  1
  O  O27  1  0.175536  0.339931  0.906939  1
