# generated using pymatgen
data_Li5V6O5F19
_symmetry_space_group_name_H-M   'P 1'
_cell_length_a   5.16148574
_cell_length_b   5.39761117
_cell_length_c   16.50387843
_cell_angle_alpha   99.37362026
_cell_angle_beta   89.95743549
_cell_angle_gamma   90.88269507
_symmetry_Int_Tables_number   1
_chemical_formula_structural   Li5V6O5F19
_chemical_formula_sum   'Li5 V6 O5 F19'
_cell_volume   453.59892734
_cell_formula_units_Z   1
loop_
 _symmetry_equiv_pos_site_id
 _symmetry_equiv_pos_as_xyz
  1  'x, y, z'
loop_
 _atom_site_type_symbol
 _atom_site_label
 _atom_site_symmetry_multiplicity
 _atom_site_fract_x
 _atom_site_fract_y
 _atom_site_fract_z
 _atom_site_occupancy
  Li  Li0  1  0.453077  0.170441  0.553791  1
  Li  Li1  1  0.560698  0.180157  0.125873  1
  Li  Li2  1  0.821410  0.699288  0.843214  1
  Li  Li3  1  0.042893  0.659854  0.546140  1
  Li  Li4  1  0.967920  0.662423  0.117712  1
  V  V5  1  0.973790  0.301438  0.669073  1
  V  V6  1  0.493920  0.164874  0.336838  1
  V  V7  1  0.028212  0.036510  0.997114  1
  V  V8  1  0.527369  0.516747  0.987603  1
  V  V9  1  0.518883  0.797545  0.668199  1
  V  V10  1  0.015475  0.691274  0.336339  1
  O  O11  1  0.791821  0.031644  0.640333  1
  O  O12  1  0.693047  0.528256  0.638719  1
  O  O13  1  0.791261  0.696509  0.973006  1
  O  O14  1  0.205837  0.303639  0.027481  1
  O  O15  1  0.213354  0.954647  0.354231  1
  F  F16  1  0.702797  0.187824  0.966594  1
  F  F17  1  0.301410  0.139627  0.688269  1
  F  F18  1  0.585832  0.210598  0.444855  1
  F  F19  1  0.878731  0.010694  0.106014  1
  F  F20  1  0.415394  0.132258  0.227393  1
  F  F21  1  0.380288  0.466585  0.886691  1
  F  F22  1  0.116405  0.317833  0.559136  1
  F  F23  1  0.899463  0.387827  0.779958  1
  F  F24  1  0.790213  0.374414  0.314362  1
  F  F25  1  0.289351  0.462327  0.359559  1
  F  F26  1  0.184104  0.641270  0.688968  1
  F  F27  1  0.629101  0.505863  0.104470  1
  F  F28  1  0.091452  0.936499  0.886461  1
  F  F29  1  0.902814  0.706219  0.445883  1
  F  F30  1  0.081528  0.614804  0.222035  1
  F  F31  1  0.596136  0.864731  0.779518  1
  F  F32  1  0.377315  0.819296  0.558915  1
  F  F33  1  0.705444  0.870320  0.311365  1
  F  F34  1  0.296768  0.807760  0.031373  1
