# generated using pymatgen
data_Li3Mn2(SiO4)2
_symmetry_space_group_name_H-M   'P 1'
_cell_length_a   5.27580466
_cell_length_b   10.80809919
_cell_length_c   6.32925016
_cell_angle_alpha   90.00000000
_cell_angle_beta   90.95348737
_cell_angle_gamma   90.00000000
_symmetry_Int_Tables_number   1
_chemical_formula_structural   Li3Mn2(SiO4)2
_chemical_formula_sum   'Li6 Mn4 Si4 O16'
_cell_volume   360.85285890
_cell_formula_units_Z   2
loop_
 _symmetry_equiv_pos_site_id
 _symmetry_equiv_pos_as_xyz
  1  'x, y, z'
loop_
 _atom_site_type_symbol
 _atom_site_label
 _atom_site_symmetry_multiplicity
 _atom_site_fract_x
 _atom_site_fract_y
 _atom_site_fract_z
 _atom_site_occupancy
  Li  Li0  1  0.544695  0.833471  0.248012  1
  Li  Li1  1  0.455305  0.333471  0.751988  1
  Li  Li2  1  0.045147  0.670583  0.758918  1
  Li  Li3  1  0.967071  0.170750  0.759425  1
  Li  Li4  1  0.032929  0.670750  0.240575  1
  Li  Li5  1  0.954853  0.170583  0.241082  1
  Mn  Mn6  1  0.436561  0.582659  0.506279  1
  Mn  Mn7  1  0.563439  0.082659  0.493721  1
  Mn  Mn8  1  0.069853  0.417759  0.018138  1
  Mn  Mn9  1  0.930147  0.917759  0.981862  1
  Si  Si10  1  0.055348  0.918337  0.490818  1
  Si  Si11  1  0.944652  0.418337  0.509182  1
  Si  Si12  1  0.561786  0.575617  0.001486  1
  Si  Si13  1  0.438214  0.075617  0.998514  1
  O  O14  1  0.006726  0.339758  0.298552  1
  O  O15  1  0.939245  0.842631  0.284380  1
  O  O16  1  0.363657  0.936134  0.461337  1
  O  O17  1  0.060144  0.563108  0.495852  1
  O  O18  1  0.636343  0.436134  0.538663  1
  O  O19  1  0.939856  0.063108  0.504148  1
  O  O20  1  0.993274  0.839758  0.701448  1
  O  O21  1  0.060755  0.342631  0.715620  1
  O  O22  1  0.546407  0.149700  0.783077  1
  O  O23  1  0.435722  0.643135  0.786328  1
  O  O24  1  0.462926  0.434285  0.003161  1
  O  O25  1  0.537074  0.934285  0.996839  1
  O  O26  1  0.873708  0.589446  0.998893  1
  O  O27  1  0.126292  0.089446  0.001107  1
  O  O28  1  0.453593  0.649700  0.216923  1
  O  O29  1  0.564278  0.143135  0.213672  1
