# generated using pymatgen
data_LiCuPO4
_symmetry_space_group_name_H-M   'P 1'
_cell_length_a   5.87591502
_cell_length_b   7.37079561
_cell_length_c   14.07005470
_cell_angle_alpha   90.00000000
_cell_angle_beta   90.00000000
_cell_angle_gamma   90.00000000
_symmetry_Int_Tables_number   1
_chemical_formula_structural   LiCuPO4
_chemical_formula_sum   'Li8 Cu8 P8 O32'
_cell_volume   609.37644175
_cell_formula_units_Z   8
loop_
 _symmetry_equiv_pos_site_id
 _symmetry_equiv_pos_as_xyz
  1  'x, y, z'
loop_
 _atom_site_type_symbol
 _atom_site_label
 _atom_site_symmetry_multiplicity
 _atom_site_fract_x
 _atom_site_fract_y
 _atom_site_fract_z
 _atom_site_occupancy
  Li  Li0  1  0.157097  0.196711  0.217218  1
  Li  Li1  1  0.657097  0.196711  0.282782  1
  Li  Li2  1  0.657097  0.303289  0.782782  1
  Li  Li3  1  0.157097  0.303289  0.717218  1
  Li  Li4  1  0.342903  0.696711  0.217218  1
  Li  Li5  1  0.842903  0.696711  0.282782  1
  Li  Li6  1  0.342903  0.803289  0.717218  1
  Li  Li7  1  0.842903  0.803289  0.782782  1
  Cu  Cu8  1  0.378729  0.180584  0.531055  1
  Cu  Cu9  1  0.878729  0.180584  0.968945  1
  Cu  Cu10  1  0.378729  0.319416  0.031055  1
  Cu  Cu11  1  0.878729  0.319416  0.468945  1
  Cu  Cu12  1  0.121271  0.680584  0.531055  1
  Cu  Cu13  1  0.621271  0.680584  0.968945  1
  Cu  Cu14  1  0.121271  0.819416  0.031055  1
  Cu  Cu15  1  0.621271  0.819416  0.468945  1
  P  P16  1  0.904723  0.032037  0.625501  1
  P  P17  1  0.404723  0.032037  0.874499  1
  P  P18  1  0.904723  0.467963  0.125501  1
  P  P19  1  0.404723  0.467963  0.374499  1
  P  P20  1  0.595277  0.532037  0.625501  1
  P  P21  1  0.095277  0.532037  0.874499  1
  P  P22  1  0.595277  0.967963  0.125501  1
  P  P23  1  0.095277  0.967963  0.374499  1
  O  O24  1  0.812886  0.991034  0.061942  1
  O  O25  1  0.312886  0.991034  0.438058  1
  O  O26  1  0.344733  0.091422  0.774252  1
  O  O27  1  0.844733  0.091422  0.725748  1
  O  O28  1  0.457695  0.147940  0.131703  1
  O  O29  1  0.957695  0.147940  0.368297  1
  O  O30  1  0.057763  0.185786  0.578736  1
  O  O31  1  0.557763  0.185786  0.921264  1
  O  O32  1  0.057763  0.314214  0.078736  1
  O  O33  1  0.557763  0.314214  0.421264  1
  O  O34  1  0.457695  0.352060  0.631703  1
  O  O35  1  0.957695  0.352060  0.868297  1
  O  O36  1  0.844733  0.408578  0.225748  1
  O  O37  1  0.344733  0.408578  0.274252  1
  O  O38  1  0.812886  0.508966  0.561942  1
  O  O39  1  0.312886  0.508966  0.938058  1
  O  O40  1  0.187114  0.491034  0.438058  1
  O  O41  1  0.687114  0.491034  0.061942  1
  O  O42  1  0.655267  0.591422  0.725748  1
  O  O43  1  0.155267  0.591422  0.774252  1
  O  O44  1  0.042305  0.647940  0.131703  1
  O  O45  1  0.542305  0.647940  0.368297  1
  O  O46  1  0.442237  0.685786  0.578736  1
  O  O47  1  0.942237  0.685786  0.921264  1
  O  O48  1  0.442237  0.814214  0.078736  1
  O  O49  1  0.942237  0.814214  0.421264  1
  O  O50  1  0.042305  0.852060  0.631703  1
  O  O51  1  0.542305  0.852060  0.868297  1
  O  O52  1  0.655267  0.908578  0.225748  1
  O  O53  1  0.155267  0.908578  0.274252  1
  O  O54  1  0.687114  0.008966  0.561942  1
  O  O55  1  0.187114  0.008966  0.938058  1
