# generated using pymatgen
data_Cr3O8
_symmetry_space_group_name_H-M   'P 1'
_cell_length_a   5.49211928
_cell_length_b   6.61019584
_cell_length_c   8.24373037
_cell_angle_alpha   90.00000000
_cell_angle_beta   90.00000000
_cell_angle_gamma   90.00000000
_symmetry_Int_Tables_number   1
_chemical_formula_structural   Cr3O8
_chemical_formula_sum   'Cr6 O16'
_cell_volume   299.28025569
_cell_formula_units_Z   2
loop_
 _symmetry_equiv_pos_site_id
 _symmetry_equiv_pos_as_xyz
  1  'x, y, z'
loop_
 _atom_site_type_symbol
 _atom_site_label
 _atom_site_symmetry_multiplicity
 _atom_site_fract_x
 _atom_site_fract_y
 _atom_site_fract_z
 _atom_site_occupancy
  Cr  Cr0  1  0.000000  0.500000  0.000000  1
  Cr  Cr1  1  0.000000  0.215971  0.342601  1
  Cr  Cr2  1  0.000000  0.784029  0.657399  1
  Cr  Cr3  1  0.500000  0.284029  0.842601  1
  Cr  Cr4  1  0.500000  0.715971  0.157399  1
  Cr  Cr5  1  0.500000  0.000000  0.500000  1
  O  O6  1  0.000000  0.973760  0.774055  1
  O  O7  1  0.000000  0.431099  0.233157  1
  O  O8  1  0.000000  0.568901  0.766843  1
  O  O9  1  0.000000  0.026240  0.225945  1
  O  O10  1  0.752857  0.298854  0.963614  1
  O  O11  1  0.752857  0.701146  0.036386  1
  O  O12  1  0.747143  0.798854  0.536386  1
  O  O13  1  0.747143  0.201146  0.463614  1
  O  O14  1  0.500000  0.068901  0.733157  1
  O  O15  1  0.500000  0.473760  0.725945  1
  O  O16  1  0.500000  0.931099  0.266843  1
  O  O17  1  0.500000  0.526240  0.274055  1
  O  O18  1  0.252857  0.798854  0.536386  1
  O  O19  1  0.252857  0.201146  0.463614  1
  O  O20  1  0.247143  0.298854  0.963614  1
  O  O21  1  0.247143  0.701146  0.036386  1
