# generated using pymatgen
data_Li4FeSb(TeO6)2
_symmetry_space_group_name_H-M   'P 1'
_cell_length_a   5.17755312
_cell_length_b   5.42808486
_cell_length_c   7.51297779
_cell_angle_alpha   86.32404882
_cell_angle_beta   89.93990909
_cell_angle_gamma   89.86506943
_symmetry_Int_Tables_number   1
_chemical_formula_structural   Li4FeSb(TeO6)2
_chemical_formula_sum   'Li4 Fe1 Sb1 Te2 O12'
_cell_volume   210.71113481
_cell_formula_units_Z   1
loop_
 _symmetry_equiv_pos_site_id
 _symmetry_equiv_pos_as_xyz
  1  'x, y, z'
loop_
 _atom_site_type_symbol
 _atom_site_label
 _atom_site_symmetry_multiplicity
 _atom_site_fract_x
 _atom_site_fract_y
 _atom_site_fract_z
 _atom_site_occupancy
  Li  Li0  1  0.003569  0.557091  0.301304  1
  Li  Li1  1  0.496759  0.076794  0.764712  1
  Li  Li2  1  0.996156  0.529575  0.752465  1
  Li  Li3  1  0.503078  0.092057  0.306467  1
  Fe  Fe4  1  0.501085  0.516638  0.502394  1
  Sb  Sb5  1  0.999635  0.999567  0.003170  1
  Te  Te6  1  0.000401  0.001797  0.500787  1
  Te  Te7  1  0.500312  0.502248  0.001061  1
  O  O8  1  0.704906  0.812781  0.430627  1
  O  O9  1  0.867618  0.982185  0.751300  1
  O  O10  1  0.673841  0.178275  0.064499  1
  O  O11  1  0.807636  0.297077  0.438056  1
  O  O12  1  0.195645  0.306220  0.921099  1
  O  O13  1  0.621725  0.475663  0.761480  1
  O  O14  1  0.374288  0.486046  0.238685  1
  O  O15  1  0.821302  0.672209  0.064461  1
  O  O16  1  0.172430  0.686256  0.547926  1
  O  O17  1  0.313505  0.806477  0.922287  1
  O  O18  1  0.137147  0.986222  0.249593  1
  O  O19  1  0.308964  0.177215  0.548823  1
