# generated using pymatgen
data_Fe3PH6PbSO14
_symmetry_space_group_name_H-M   'P 1'
_cell_length_a   7.10989932
_cell_length_b   7.10989932
_cell_length_c   7.10989932
_cell_angle_alpha   62.58320251
_cell_angle_beta   62.58320251
_cell_angle_gamma   62.58320251
_symmetry_Int_Tables_number   1
_chemical_formula_structural   Fe3PH6PbSO14
_chemical_formula_sum   'Fe3 P1 H6 Pb1 S1 O14'
_cell_volume   268.76246243
_cell_formula_units_Z   1
loop_
 _symmetry_equiv_pos_site_id
 _symmetry_equiv_pos_as_xyz
  1  'x, y, z'
loop_
 _atom_site_type_symbol
 _atom_site_label
 _atom_site_symmetry_multiplicity
 _atom_site_fract_x
 _atom_site_fract_y
 _atom_site_fract_z
 _atom_site_occupancy
  Fe  Fe0  1  0.992341  0.992341  0.501510  1
  Fe  Fe1  1  0.992341  0.501510  0.992341  1
  Fe  Fe2  1  0.501510  0.992341  0.992341  1
  P  P3  1  0.685602  0.685602  0.685602  1
  H  H4  1  0.710468  0.306056  0.306056  1
  H  H5  1  0.306056  0.306056  0.710468  1
  H  H6  1  0.306056  0.710468  0.306056  1
  H  H7  1  0.292817  0.686183  0.686183  1
  H  H8  1  0.686183  0.686183  0.292817  1
  H  H9  1  0.686183  0.292817  0.686183  1
  Pb  Pb10  1  0.001637  0.001637  0.001637  1
  S  S11  1  0.307242  0.307242  0.307242  1
  O  O12  1  0.393873  0.393873  0.393873  1
  O  O13  1  0.595369  0.595369  0.595369  1
  O  O14  1  0.498431  0.167575  0.167575  1
  O  O15  1  0.167575  0.167575  0.498431  1
  O  O16  1  0.167575  0.498431  0.167575  1
  O  O17  1  0.489036  0.832574  0.832574  1
  O  O18  1  0.832574  0.832574  0.489036  1
  O  O19  1  0.832574  0.489036  0.832574  1
  O  O20  1  0.875881  0.254753  0.254753  1
  O  O21  1  0.254753  0.254753  0.875881  1
  O  O22  1  0.254753  0.875881  0.254753  1
  O  O23  1  0.125138  0.739865  0.739865  1
  O  O24  1  0.739865  0.739865  0.125138  1
  O  O25  1  0.739865  0.125138  0.739865  1
