# generated using pymatgen
data_Li2Mn3CrO8
_symmetry_space_group_name_H-M   'P 1'
_cell_length_a   5.88468298
_cell_length_b   5.88468298
_cell_length_c   9.44447820
_cell_angle_alpha   90.00000000
_cell_angle_beta   90.00000000
_cell_angle_gamma   120.00000000
_symmetry_Int_Tables_number   1
_chemical_formula_structural   Li2Mn3CrO8
_chemical_formula_sum   'Li4 Mn6 Cr2 O16'
_cell_volume   283.24010226
_cell_formula_units_Z   2
loop_
 _symmetry_equiv_pos_site_id
 _symmetry_equiv_pos_as_xyz
  1  'x, y, z'
loop_
 _atom_site_type_symbol
 _atom_site_label
 _atom_site_symmetry_multiplicity
 _atom_site_fract_x
 _atom_site_fract_y
 _atom_site_fract_z
 _atom_site_occupancy
  Li  Li0  1  0.333333  0.666667  0.892155  1
  Li  Li1  1  0.000000  0.000000  0.997777  1
  Li  Li2  1  0.000000  0.000000  0.497777  1
  Li  Li3  1  0.666667  0.333333  0.392155  1
  Mn  Mn4  1  0.170723  0.829277  0.214873  1
  Mn  Mn5  1  0.170723  0.341446  0.214873  1
  Mn  Mn6  1  0.658554  0.829277  0.214873  1
  Mn  Mn7  1  0.341446  0.170723  0.714873  1
  Mn  Mn8  1  0.829277  0.658554  0.714873  1
  Mn  Mn9  1  0.829277  0.170723  0.714873  1
  Cr  Cr10  1  0.333333  0.666667  0.488451  1
  Cr  Cr11  1  0.666667  0.333333  0.988451  1
  O  O12  1  0.161800  0.838200  0.602402  1
  O  O13  1  0.039863  0.519932  0.337845  1
  O  O14  1  0.333333  0.666667  0.101108  1
  O  O15  1  0.000000  0.000000  0.308742  1
  O  O16  1  0.000000  0.000000  0.808742  1
  O  O17  1  0.161800  0.323601  0.602402  1
  O  O18  1  0.480068  0.960137  0.337845  1
  O  O19  1  0.480068  0.519932  0.337845  1
  O  O20  1  0.323601  0.161800  0.102402  1
  O  O21  1  0.676399  0.838200  0.602402  1
  O  O22  1  0.519932  0.480068  0.837845  1
  O  O23  1  0.519932  0.039863  0.837845  1
  O  O24  1  0.666667  0.333333  0.601108  1
  O  O25  1  0.838200  0.676399  0.102402  1
  O  O26  1  0.960137  0.480068  0.837845  1
  O  O27  1  0.838200  0.161800  0.102402  1
