# generated using pymatgen
data_Li2AgF4
_symmetry_space_group_name_H-M   'P 1'
_cell_length_a   5.33020168
_cell_length_b   9.98086541
_cell_length_c   18.91493019
_cell_angle_alpha   90.00000000
_cell_angle_beta   90.00000000
_cell_angle_gamma   90.00000000
_symmetry_Int_Tables_number   1
_chemical_formula_structural   Li2AgF4
_chemical_formula_sum   'Li24 Ag12 F48'
_cell_volume   1006.27476988
_cell_formula_units_Z   12
loop_
 _symmetry_equiv_pos_site_id
 _symmetry_equiv_pos_as_xyz
  1  'x, y, z'
loop_
 _atom_site_type_symbol
 _atom_site_label
 _atom_site_symmetry_multiplicity
 _atom_site_fract_x
 _atom_site_fract_y
 _atom_site_fract_z
 _atom_site_occupancy
  Li  Li0  1  0.203412  0.423066  0.891692  1
  Li  Li1  1  0.203412  0.076934  0.391692  1
  Li  Li2  1  0.233219  0.725573  0.506786  1
  Li  Li3  1  0.233219  0.774427  0.006786  1
  Li  Li4  1  0.232285  0.441328  0.551560  1
  Li  Li5  1  0.232285  0.058672  0.051560  1
  Li  Li6  1  0.263860  0.752655  0.833181  1
  Li  Li7  1  0.263860  0.747345  0.333181  1
  Li  Li8  1  0.296426  0.770878  0.688717  1
  Li  Li9  1  0.296426  0.729122  0.188717  1
  Li  Li10  1  0.298995  0.099210  0.708575  1
  Li  Li11  1  0.298995  0.400790  0.208575  1
  Li  Li12  1  0.703412  0.923066  0.608308  1
  Li  Li13  1  0.703412  0.576934  0.108308  1
  Li  Li14  1  0.733219  0.225573  0.993214  1
  Li  Li15  1  0.733219  0.274427  0.493214  1
  Li  Li16  1  0.732285  0.941328  0.948440  1
  Li  Li17  1  0.732285  0.558672  0.448440  1
  Li  Li18  1  0.763860  0.252655  0.666819  1
  Li  Li19  1  0.763860  0.247345  0.166819  1
  Li  Li20  1  0.796426  0.270878  0.811283  1
  Li  Li21  1  0.796426  0.229122  0.311283  1
  Li  Li22  1  0.798995  0.599210  0.791425  1
  Li  Li23  1  0.798995  0.900790  0.291425  1
  Ag  Ag24  1  0.192173  0.105807  0.555533  1
  Ag  Ag25  1  0.192173  0.394193  0.055533  1
  Ag  Ag26  1  0.284864  0.112278  0.890154  1
  Ag  Ag27  1  0.284864  0.387722  0.390154  1
  Ag  Ag28  1  0.326289  0.443223  0.737065  1
  Ag  Ag29  1  0.326289  0.056777  0.237065  1
  Ag  Ag30  1  0.692173  0.605807  0.944467  1
  Ag  Ag31  1  0.692173  0.894193  0.444467  1
  Ag  Ag32  1  0.784864  0.612278  0.609846  1
  Ag  Ag33  1  0.784864  0.887722  0.109846  1
  Ag  Ag34  1  0.826289  0.556777  0.262935  1
  Ag  Ag35  1  0.826289  0.943223  0.762935  1
  F  F36  1  0.002750  0.731767  0.744400  1
  F  F37  1  0.002750  0.768233  0.244400  1
  F  F38  1  0.007959  0.434622  0.801005  1
  F  F39  1  0.007959  0.065378  0.301005  1
  F  F40  1  0.024989  0.644280  0.886814  1
  F  F41  1  0.024989  0.855720  0.386814  1
  F  F42  1  0.026999  0.964645  0.653233  1
  F  F43  1  0.026999  0.535355  0.153233  1
  F  F44  1  0.068541  0.946538  0.984449  1
  F  F45  1  0.068541  0.553462  0.484449  1
  F  F46  1  0.131701  0.523761  0.640922  1
  F  F47  1  0.131701  0.976239  0.140922  1
  F  F48  1  0.148939  0.950028  0.827087  1
  F  F49  1  0.148939  0.549972  0.327087  1
  F  F50  1  0.383793  0.940549  0.508555  1
  F  F51  1  0.383793  0.559451  0.008555  1
  F  F52  1  0.403919  0.282705  0.949875  1
  F  F53  1  0.403919  0.217295  0.449875  1
  F  F54  1  0.444286  0.725207  0.597197  1
  F  F55  1  0.444286  0.774793  0.097197  1
  F  F56  1  0.489453  0.683369  0.763821  1
  F  F57  1  0.489453  0.816631  0.263821  1
  F  F58  1  0.494104  0.788553  0.924803  1
  F  F59  1  0.494104  0.711447  0.424803  1
  F  F60  1  0.502750  0.231767  0.755600  1
  F  F61  1  0.502750  0.268233  0.255600  1
  F  F62  1  0.507959  0.565378  0.198995  1
  F  F63  1  0.507959  0.934622  0.698995  1
  F  F64  1  0.524989  0.144280  0.613186  1
  F  F65  1  0.524989  0.355720  0.113186  1
  F  F66  1  0.526999  0.464645  0.846767  1
  F  F67  1  0.526999  0.035355  0.346767  1
  F  F68  1  0.568541  0.446538  0.515551  1
  F  F69  1  0.568541  0.053462  0.015551  1
  F  F70  1  0.631701  0.023761  0.859078  1
  F  F71  1  0.631701  0.476239  0.359078  1
  F  F72  1  0.648939  0.049972  0.172913  1
  F  F73  1  0.648939  0.450028  0.672913  1
  F  F74  1  0.883793  0.440549  0.991445  1
  F  F75  1  0.883793  0.059451  0.491445  1
  F  F76  1  0.903919  0.717295  0.050125  1
  F  F77  1  0.903919  0.782705  0.550125  1
  F  F78  1  0.944286  0.225207  0.902803  1
  F  F79  1  0.944286  0.274793  0.402803  1
  F  F80  1  0.989453  0.183369  0.736179  1
  F  F81  1  0.989453  0.316631  0.236179  1
  F  F82  1  0.994104  0.211447  0.075197  1
  F  F83  1  0.994104  0.288553  0.575197  1
