# generated using pymatgen
data_Li2Ti2MnCr2(PO4)6
_symmetry_space_group_name_H-M   'P 1'
_cell_length_a   8.60104470
_cell_length_b   8.63615145
_cell_length_c   8.63886713
_cell_angle_alpha   60.07623912
_cell_angle_beta   60.18768748
_cell_angle_gamma   60.24098046
_symmetry_Int_Tables_number   1
_chemical_formula_structural   Li2Ti2MnCr2(PO4)6
_chemical_formula_sum   'Li2 Ti2 Mn1 Cr2 P6 O24'
_cell_volume   455.47408694
_cell_formula_units_Z   1
loop_
 _symmetry_equiv_pos_site_id
 _symmetry_equiv_pos_as_xyz
  1  'x, y, z'
loop_
 _atom_site_type_symbol
 _atom_site_label
 _atom_site_symmetry_multiplicity
 _atom_site_fract_x
 _atom_site_fract_y
 _atom_site_fract_z
 _atom_site_occupancy
  Li  Li0  1  0.004749  0.988684  0.998072  1
  Li  Li1  1  0.762543  0.352240  0.136489  1
  Ti  Ti2  1  0.567931  0.138718  0.144733  1
  Ti  Ti3  1  0.424143  0.858117  0.857889  1
  Mn  Mn4  1  0.496424  0.502317  0.509435  1
  Cr  Cr5  1  0.930133  0.356761  0.358545  1
  Cr  Cr6  1  0.073089  0.645124  0.639671  1
  P  P7  1  0.751096  0.460680  0.748541  1
  P  P8  1  0.243019  0.251884  0.958467  1
  P  P9  1  0.246584  0.959617  0.543127  1
  P  P10  1  0.750792  0.039767  0.459714  1
  P  P11  1  0.751947  0.751357  0.037465  1
  P  P12  1  0.252886  0.540632  0.250951  1
  O  O13  1  0.067137  0.117129  0.508548  1
  O  O14  1  0.075117  0.503674  0.302992  1
  O  O15  1  0.753400  0.275032  0.923256  1
  O  O16  1  0.571866  0.625439  0.803330  1
  O  O17  1  0.244518  0.937491  0.732862  1
  O  O18  1  0.055889  0.305884  0.114700  1
  O  O19  1  0.417807  0.197091  0.009463  1
  O  O20  1  0.735269  0.440344  0.588285  1
  O  O21  1  0.264442  0.415476  0.765942  1
  O  O22  1  0.244644  0.085010  0.935942  1
  O  O23  1  0.426641  0.004192  0.378029  1
  O  O24  1  0.266862  0.765639  0.554521  1
  O  O25  1  0.734292  0.240212  0.434644  1
  O  O26  1  0.571688  0.000141  0.621903  1
  O  O27  1  0.753401  0.913535  0.066769  1
  O  O28  1  0.734911  0.578829  0.227362  1
  O  O29  1  0.267292  0.556501  0.414681  1
  O  O30  1  0.932197  0.697263  0.879543  1
  O  O31  1  0.572241  0.808723  0.995375  1
  O  O32  1  0.754833  0.072093  0.263028  1
  O  O33  1  0.438234  0.379444  0.193745  1
  O  O34  1  0.247693  0.731499  0.084623  1
  O  O35  1  0.931880  0.493060  0.695450  1
  O  O36  1  0.932412  0.883400  0.488907  1
