# generated using pymatgen
data_LiCr(PO3)3
_symmetry_space_group_name_H-M   'P 1'
_cell_length_a   7.90931494
_cell_length_b   8.80286467
_cell_length_c   12.76470282
_cell_angle_alpha   90.00000000
_cell_angle_beta   90.00000000
_cell_angle_gamma   90.00000000
_symmetry_Int_Tables_number   1
_chemical_formula_structural   LiCr(PO3)3
_chemical_formula_sum   'Li4 Cr4 P12 O36'
_cell_volume   888.73769877
_cell_formula_units_Z   4
loop_
 _symmetry_equiv_pos_site_id
 _symmetry_equiv_pos_as_xyz
  1  'x, y, z'
loop_
 _atom_site_type_symbol
 _atom_site_label
 _atom_site_symmetry_multiplicity
 _atom_site_fract_x
 _atom_site_fract_y
 _atom_site_fract_z
 _atom_site_occupancy
  Li  Li0  1  0.009944  0.373466  0.988627  1
  Li  Li1  1  0.490056  0.626534  0.488627  1
  Li  Li2  1  0.509944  0.126534  0.011373  1
  Li  Li3  1  0.990056  0.873466  0.511373  1
  Cr  Cr4  1  0.137431  0.207826  0.628120  1
  Cr  Cr5  1  0.362569  0.792174  0.128120  1
  Cr  Cr6  1  0.637431  0.292174  0.371880  1
  Cr  Cr7  1  0.862569  0.707826  0.871880  1
  P  P8  1  0.208256  0.003415  0.339126  1
  P  P9  1  0.158492  0.480504  0.189241  1
  P  P10  1  0.247161  0.671149  0.892732  1
  P  P11  1  0.252839  0.328851  0.392732  1
  P  P12  1  0.341508  0.519496  0.689241  1
  P  P13  1  0.291744  0.996585  0.839126  1
  P  P14  1  0.708256  0.496585  0.660874  1
  P  P15  1  0.658492  0.019496  0.810759  1
  P  P16  1  0.747161  0.828851  0.107268  1
  P  P17  1  0.752839  0.171149  0.607268  1
  P  P18  1  0.841508  0.980504  0.310759  1
  P  P19  1  0.791744  0.503415  0.160874  1
  O  O20  1  0.978378  0.568468  0.188704  1
  O  O21  1  0.084064  0.581503  0.906550  1
  O  O22  1  0.139726  0.396155  0.301422  1
  O  O23  1  0.209718  0.398898  0.702752  1
  O  O24  1  0.188897  0.835184  0.848346  1
  O  O25  1  0.280881  0.929034  0.244090  1
  O  O26  1  0.204912  0.922578  0.441880  1
  O  O27  1  0.170160  0.367881  0.102440  1
  O  O28  1  0.136834  0.312095  0.484348  1
  O  O29  1  0.363166  0.687905  0.984348  1
  O  O30  1  0.329840  0.632119  0.602440  1
  O  O31  1  0.295088  0.077422  0.941880  1
  O  O32  1  0.219119  0.070966  0.744090  1
  O  O33  1  0.311103  0.164816  0.348346  1
  O  O34  1  0.290282  0.601102  0.202752  1
  O  O35  1  0.360274  0.603845  0.801422  1
  O  O36  1  0.415936  0.418497  0.406550  1
  O  O37  1  0.521622  0.431532  0.688704  1
  O  O38  1  0.478378  0.931532  0.811296  1
  O  O39  1  0.584064  0.918497  0.093450  1
  O  O40  1  0.639726  0.103845  0.698578  1
  O  O41  1  0.709718  0.101102  0.297248  1
  O  O42  1  0.688897  0.664816  0.151654  1
  O  O43  1  0.780881  0.570966  0.755910  1
  O  O44  1  0.704912  0.577422  0.558120  1
  O  O45  1  0.670160  0.132119  0.897560  1
  O  O46  1  0.636834  0.187905  0.515652  1
  O  O47  1  0.863166  0.812095  0.015652  1
  O  O48  1  0.829840  0.867881  0.397560  1
  O  O49  1  0.795088  0.422578  0.058120  1
  O  O50  1  0.719119  0.429034  0.255910  1
  O  O51  1  0.811103  0.335184  0.651654  1
  O  O52  1  0.790282  0.898898  0.797248  1
  O  O53  1  0.860274  0.896155  0.198578  1
  O  O54  1  0.915936  0.081503  0.593450  1
  O  O55  1  0.021622  0.068468  0.311296  1
