# generated using pymatgen
data_NaPH7O6
_symmetry_space_group_name_H-M   'P 1'
_cell_length_a   7.87604828
_cell_length_b   7.87604828
_cell_length_c   12.83319722
_cell_angle_alpha   66.84772373
_cell_angle_beta   113.15227627
_cell_angle_gamma   126.89334242
_symmetry_Int_Tables_number   1
_chemical_formula_structural   NaPH7O6
_chemical_formula_sum   'Na4 P4 H28 O24'
_cell_volume   571.86376655
_cell_formula_units_Z   4
loop_
 _symmetry_equiv_pos_site_id
 _symmetry_equiv_pos_as_xyz
  1  'x, y, z'
loop_
 _atom_site_type_symbol
 _atom_site_label
 _atom_site_symmetry_multiplicity
 _atom_site_fract_x
 _atom_site_fract_y
 _atom_site_fract_z
 _atom_site_occupancy
  Na  Na0  1  0.619917  0.147360  0.736012  1
  Na  Na1  1  0.147360  0.619917  0.763988  1
  Na  Na2  1  0.380083  0.852640  0.263988  1
  Na  Na3  1  0.852640  0.380083  0.236012  1
  P  P4  1  0.140297  0.143025  0.662347  1
  P  P5  1  0.143025  0.140297  0.837653  1
  P  P6  1  0.859703  0.856975  0.337653  1
  P  P7  1  0.856975  0.859703  0.162347  1
  H  H8  1  0.275262  0.867000  0.551792  1
  H  H9  1  0.867000  0.275262  0.948208  1
  H  H10  1  0.724738  0.133000  0.448208  1
  H  H11  1  0.133000  0.724738  0.051792  1
  H  H12  1  0.909730  0.351642  0.599205  1
  H  H13  1  0.351642  0.909730  0.900795  1
  H  H14  1  0.090270  0.648358  0.400795  1
  H  H15  1  0.648358  0.090270  0.099205  1
  H  H16  1  0.524204  0.542132  0.613600  1
  H  H17  1  0.542132  0.524204  0.886400  1
  H  H18  1  0.475796  0.457868  0.386400  1
  H  H19  1  0.457868  0.475796  0.113600  1
  H  H20  1  0.458981  0.813159  0.604121  1
  H  H21  1  0.813159  0.458981  0.895879  1
  H  H22  1  0.541019  0.186841  0.395879  1
  H  H23  1  0.186841  0.541019  0.104121  1
  H  H24  1  0.605398  0.725830  0.503314  1
  H  H25  1  0.725830  0.605398  0.996686  1
  H  H26  1  0.394602  0.274170  0.496686  1
  H  H27  1  0.274170  0.394602  0.003314  1
  H  H28  1  0.886850  0.553749  0.546568  1
  H  H29  1  0.553749  0.886850  0.953432  1
  H  H30  1  0.113150  0.446251  0.453432  1
  H  H31  1  0.446251  0.113150  0.046568  1
  H  H32  1  0.862272  0.809565  0.641837  1
  H  H33  1  0.809565  0.862272  0.858163  1
  H  H34  1  0.137728  0.190435  0.358163  1
  H  H35  1  0.190435  0.137728  0.141837  1
  O  O36  1  0.997321  0.225679  0.569455  1
  O  O37  1  0.225679  0.997321  0.930545  1
  O  O38  1  0.002679  0.774321  0.430545  1
  O  O39  1  0.774321  0.002679  0.069455  1
  O  O40  1  0.371085  0.262058  0.645702  1
  O  O41  1  0.262058  0.371085  0.854298  1
  O  O42  1  0.628915  0.737942  0.354298  1
  O  O43  1  0.737942  0.628915  0.145702  1
  O  O44  1  0.028610  0.888849  0.672149  1
  O  O45  1  0.888849  0.028610  0.827851  1
  O  O46  1  0.971390  0.111151  0.327852  1
  O  O47  1  0.111151  0.971390  0.172149  1
  O  O48  1  0.387200  0.863573  0.621823  1
  O  O49  1  0.863573  0.387200  0.878177  1
  O  O50  1  0.612800  0.136427  0.378177  1
  O  O51  1  0.136427  0.612800  0.121823  1
  O  O52  1  0.864646  0.431813  0.615016  1
  O  O53  1  0.431813  0.864646  0.884984  1
  O  O54  1  0.135354  0.568187  0.384984  1
  O  O55  1  0.568187  0.135354  0.115016  1
  O  O56  1  0.614828  0.703761  0.586300  1
  O  O57  1  0.703761  0.614828  0.913700  1
  O  O58  1  0.385172  0.296239  0.413700  1
  O  O59  1  0.296239  0.385172  0.086300  1
