# generated using pymatgen
data_Li12MnCo3P4(CO7)4
_symmetry_space_group_name_H-M   'P 1'
_cell_length_a   8.46067113
_cell_length_b   6.49318925
_cell_length_c   10.02954956
_cell_angle_alpha   90.00000000
_cell_angle_beta   94.88486513
_cell_angle_gamma   90.00000000
_symmetry_Int_Tables_number   1
_chemical_formula_structural   Li12MnCo3P4(CO7)4
_chemical_formula_sum   'Li12 Mn1 Co3 P4 C4 O28'
_cell_volume   548.98944961
_cell_formula_units_Z   1
loop_
 _symmetry_equiv_pos_site_id
 _symmetry_equiv_pos_as_xyz
  1  'x, y, z'
loop_
 _atom_site_type_symbol
 _atom_site_label
 _atom_site_symmetry_multiplicity
 _atom_site_fract_x
 _atom_site_fract_y
 _atom_site_fract_z
 _atom_site_occupancy
  Li  Li0  1  0.900718  0.000000  0.382655  1
  Li  Li1  1  0.906175  0.000000  0.882142  1
  Li  Li2  1  0.722420  0.226749  0.125894  1
  Li  Li3  1  0.722420  0.773251  0.125894  1
  Li  Li4  1  0.724743  0.228258  0.623550  1
  Li  Li5  1  0.724743  0.771742  0.623550  1
  Li  Li6  1  0.277600  0.726820  0.373743  1
  Li  Li7  1  0.277600  0.273180  0.373743  1
  Li  Li8  1  0.276114  0.726508  0.877645  1
  Li  Li9  1  0.276114  0.273492  0.877645  1
  Li  Li10  1  0.098163  0.500000  0.116715  1
  Li  Li11  1  0.098786  0.500000  0.616242  1
  Mn  Mn12  1  0.339250  0.000000  0.611495  1
  Co  Co13  1  0.668019  0.500000  0.394580  1
  Co  Co14  1  0.668862  0.500000  0.895519  1
  Co  Co15  1  0.331549  0.000000  0.104788  1
  P  P16  1  0.585901  0.000000  0.358642  1
  P  P17  1  0.589853  0.000000  0.863710  1
  P  P18  1  0.413415  0.500000  0.138966  1
  P  P19  1  0.412898  0.500000  0.638023  1
  C  C20  1  0.962207  0.500000  0.350650  1
  C  C21  1  0.962838  0.500000  0.850835  1
  C  C22  1  0.038265  0.000000  0.150041  1
  C  C23  1  0.032198  0.000000  0.649067  1
  O  O24  1  0.927535  0.500000  0.473890  1
  O  O25  1  0.892451  0.000000  0.180939  1
  O  O26  1  0.928350  0.500000  0.973881  1
  O  O27  1  0.844945  0.500000  0.256922  1
  O  O28  1  0.885472  0.000000  0.679616  1
  O  O29  1  0.845233  0.500000  0.757101  1
  O  O30  1  0.689771  0.186709  0.410892  1
  O  O31  1  0.689771  0.813291  0.410892  1
  O  O32  1  0.691669  0.187210  0.916383  1
  O  O33  1  0.691669  0.812790  0.916383  1
  O  O34  1  0.579755  0.500000  0.086110  1
  O  O35  1  0.566853  0.000000  0.202350  1
  O  O36  1  0.580048  0.500000  0.585328  1
  O  O37  1  0.574423  0.000000  0.707682  1
  O  O38  1  0.433186  0.500000  0.294845  1
  O  O39  1  0.419530  0.000000  0.410090  1
  O  O40  1  0.434140  0.500000  0.794497  1
  O  O41  1  0.420225  0.000000  0.911462  1
  O  O42  1  0.309245  0.313368  0.087085  1
  O  O43  1  0.309245  0.686632  0.087085  1
  O  O44  1  0.309001  0.684270  0.585415  1
  O  O45  1  0.309001  0.315730  0.585415  1
  O  O46  1  0.154976  0.000000  0.243880  1
  O  O47  1  0.107701  0.500000  0.318562  1
  O  O48  1  0.145595  0.000000  0.745705  1
  O  O49  1  0.074022  0.000000  0.026850  1
  O  O50  1  0.108296  0.500000  0.818706  1
  O  O51  1  0.067045  0.000000  0.526299  1
