# generated using pymatgen
data_Li2NbS3
_symmetry_space_group_name_H-M   'P 1'
_cell_length_a   6.21035352
_cell_length_b   6.21035352
_cell_length_c   6.46246880
_cell_angle_alpha   80.81559493
_cell_angle_beta   99.18440507
_cell_angle_gamma   59.15156540
_symmetry_Int_Tables_number   1
_chemical_formula_structural   Li2NbS3
_chemical_formula_sum   'Li4 Nb2 S6'
_cell_volume   202.48809275
_cell_formula_units_Z   2
loop_
 _symmetry_equiv_pos_site_id
 _symmetry_equiv_pos_as_xyz
  1  'x, y, z'
loop_
 _atom_site_type_symbol
 _atom_site_label
 _atom_site_symmetry_multiplicity
 _atom_site_fract_x
 _atom_site_fract_y
 _atom_site_fract_z
 _atom_site_occupancy
  Li  Li0  1  0.162002  0.162002  0.500000  1
  Li  Li1  1  0.837998  0.837998  0.500000  1
  Li  Li2  1  0.500000  0.500000  0.500000  1
  Li  Li3  1  0.000000  0.000000  0.000000  1
  Nb  Nb4  1  0.677479  0.677479  0.000000  1
  Nb  Nb5  1  0.322521  0.322521  0.000000  1
  S  S6  1  0.265341  0.734659  0.769532  1
  S  S7  1  0.080774  0.578214  0.245440  1
  S  S8  1  0.421786  0.919226  0.245440  1
  S  S9  1  0.919226  0.421786  0.754560  1
  S  S10  1  0.578214  0.080774  0.754560  1
  S  S11  1  0.734659  0.265341  0.230468  1
