# generated using pymatgen
data_KCdP3H8O13
_symmetry_space_group_name_H-M   'P 1'
_cell_length_a   7.54350397
_cell_length_b   11.51040450
_cell_length_c   14.59979931
_cell_angle_alpha   97.79570085
_cell_angle_beta   89.50637594
_cell_angle_gamma   97.69703782
_symmetry_Int_Tables_number   1
_chemical_formula_structural   KCdP3H8O13
_chemical_formula_sum   'K4 Cd4 P12 H32 O52'
_cell_volume   1244.59188719
_cell_formula_units_Z   4
loop_
 _symmetry_equiv_pos_site_id
 _symmetry_equiv_pos_as_xyz
  1  'x, y, z'
loop_
 _atom_site_type_symbol
 _atom_site_label
 _atom_site_symmetry_multiplicity
 _atom_site_fract_x
 _atom_site_fract_y
 _atom_site_fract_z
 _atom_site_occupancy
  K  K0  1  0.973136  0.317775  0.692571  1
  K  K1  1  0.026864  0.682225  0.307429  1
  K  K2  1  0.497307  0.338830  0.057869  1
  K  K3  1  0.502693  0.661170  0.942131  1
  Cd  Cd4  1  0.745492  0.752248  0.738176  1
  Cd  Cd5  1  0.254508  0.247752  0.261824  1
  Cd  Cd6  1  0.373097  0.142227  0.737898  1
  Cd  Cd7  1  0.626903  0.857773  0.262102  1
  P  P8  1  0.998154  0.872415  0.105105  1
  P  P9  1  0.001846  0.127585  0.894895  1
  P  P10  1  0.014957  0.714172  0.926902  1
  P  P11  1  0.985043  0.285828  0.073098  1
  P  P12  1  0.142454  0.911459  0.821593  1
  P  P13  1  0.857546  0.088541  0.178407  1
  P  P14  1  0.508071  0.623832  0.388021  1
  P  P15  1  0.491929  0.376168  0.611979  1
  P  P16  1  0.462592  0.783591  0.562852  1
  P  P17  1  0.537408  0.216409  0.437148  1
  P  P18  1  0.664742  0.408885  0.325075  1
  P  P19  1  0.335258  0.591115  0.674925  1
  H  H20  1  0.818049  0.500174  0.851226  1
  H  H21  1  0.181951  0.499826  0.148774  1
  H  H22  1  0.848052  0.408728  0.919220  1
  H  H23  1  0.151948  0.591272  0.080780  1
  H  H24  1  0.641855  0.183394  0.875584  1
  H  H25  1  0.358145  0.816606  0.124416  1
  H  H26  1  0.382409  0.690523  0.148037  1
  H  H27  1  0.617591  0.309477  0.851963  1
  H  H28  1  0.493195  0.099115  0.165810  1
  H  H29  1  0.506805  0.900885  0.834190  1
  H  H30  1  0.692875  0.952405  0.877955  1
  H  H31  1  0.307125  0.047595  0.122045  1
  H  H32  1  0.843137  0.890705  0.440456  1
  H  H33  1  0.156863  0.109295  0.559544  1
  H  H34  1  0.733424  0.003217  0.433792  1
  H  H35  1  0.266576  0.996783  0.566208  1
  H  H36  1  0.792230  0.547646  0.613580  1
  H  H37  1  0.207770  0.452354  0.386420  1
  H  H38  1  0.981972  0.603878  0.652300  1
  H  H39  1  0.018028  0.396122  0.347700  1
  H  H40  1  0.911510  0.182344  0.492228  1
  H  H41  1  0.088490  0.817656  0.507772  1
  H  H42  1  0.916465  0.735675  0.530594  1
  H  H43  1  0.083535  0.264325  0.469406  1
  H  H44  1  0.368833  0.999871  0.345020  1
  H  H45  1  0.631167  0.000129  0.654980  1
  H  H46  1  0.632514  0.105140  0.595976  1
  H  H47  1  0.367486  0.894860  0.404024  1
  H  H48  1  0.794592  0.520071  0.087143  1
  H  H49  1  0.205408  0.479929  0.912857  1
  H  H50  1  0.747146  0.647714  0.115372  1
  H  H51  1  0.252854  0.352286  0.884628  1
  O  O52  1  0.801658  0.103257  0.892440  1
  O  O53  1  0.198342  0.896743  0.107560  1
  O  O54  1  0.103195  0.188664  0.820934  1
  O  O55  1  0.896805  0.811336  0.179066  1
  O  O56  1  0.072918  0.199322  0.993909  1
  O  O57  1  0.927082  0.800678  0.006091  1
  O  O58  1  0.878623  0.367972  0.033383  1
  O  O59  1  0.121377  0.632028  0.966617  1
  O  O60  1  0.861172  0.664237  0.861265  1
  O  O61  1  0.138828  0.335763  0.138735  1
  O  O62  1  0.162365  0.804020  0.879417  1
  O  O63  1  0.837635  0.195980  0.120583  1
  O  O64  1  0.670806  0.042200  0.206577  1
  O  O65  1  0.329194  0.957800  0.793423  1
  O  O66  1  0.001563  0.878343  0.747774  1
  O  O67  1  0.998437  0.121657  0.252226  1
  O  O68  1  0.079982  0.005721  0.904125  1
  O  O69  1  0.920018  0.994279  0.095875  1
  O  O70  1  0.308544  0.596753  0.378879  1
  O  O71  1  0.691456  0.403247  0.621121  1
  O  O72  1  0.618432  0.681165  0.315761  1
  O  O73  1  0.381568  0.318835  0.684239  1
  O  O74  1  0.436150  0.300103  0.511655  1
  O  O75  1  0.563850  0.699897  0.488345  1
  O  O76  1  0.647379  0.139742  0.482823  1
  O  O77  1  0.352621  0.860258  0.517177  1
  O  O78  1  0.605874  0.843375  0.631496  1
  O  O79  1  0.394126  0.156625  0.368504  1
  O  O80  1  0.319993  0.693871  0.610704  1
  O  O81  1  0.680007  0.306129  0.389296  1
  O  O82  1  0.476700  0.631457  0.749410  1
  O  O83  1  0.523300  0.368543  0.250590  1
  O  O84  1  0.148339  0.550227  0.702189  1
  O  O85  1  0.851661  0.449773  0.297811  1
  O  O86  1  0.592604  0.505708  0.402929  1
  O  O87  1  0.407396  0.494292  0.597071  1
  O  O88  1  0.806689  0.414716  0.856086  1
  O  O89  1  0.193311  0.585284  0.143914  1
  O  O90  1  0.546670  0.234025  0.866044  1
  O  O91  1  0.453330  0.765975  0.133956  1
  O  O92  1  0.382693  0.124292  0.142432  1
  O  O93  1  0.617307  0.875708  0.857568  1
  O  O94  1  0.216504  0.064364  0.601159  1
  O  O95  1  0.783496  0.935636  0.398841  1
  O  O96  1  0.129341  0.374539  0.375101  1
  O  O97  1  0.870659  0.625461  0.624899  1
  O  O98  1  0.964719  0.790157  0.487110  1
  O  O99  1  0.035281  0.209843  0.512890  1
  O  O100  1  0.370181  0.912719  0.339304  1
  O  O101  1  0.629819  0.087281  0.660696  1
  O  O102  1  0.704292  0.571868  0.078669  1
  O  O103  1  0.295708  0.428132  0.921331  1
