# generated using pymatgen
data_Ca3Cu5Si9O26
_symmetry_space_group_name_H-M   'P 1'
_cell_length_a   7.19479969
_cell_length_b   7.19479969
_cell_length_c   20.20673001
_cell_angle_alpha   88.95710818
_cell_angle_beta   91.04289182
_cell_angle_gamma   90.79726246
_symmetry_Int_Tables_number   1
_chemical_formula_structural   Ca3Cu5Si9O26
_chemical_formula_sum   'Ca6 Cu10 Si18 O52'
_cell_volume   1045.56121647
_cell_formula_units_Z   2
loop_
 _symmetry_equiv_pos_site_id
 _symmetry_equiv_pos_as_xyz
  1  'x, y, z'
loop_
 _atom_site_type_symbol
 _atom_site_label
 _atom_site_symmetry_multiplicity
 _atom_site_fract_x
 _atom_site_fract_y
 _atom_site_fract_z
 _atom_site_occupancy
  Ca  Ca0  1  0.726196  0.726196  0.250000  1
  Ca  Ca1  1  0.273804  0.273804  0.750000  1
  Ca  Ca2  1  0.288980  0.237585  0.070151  1
  Ca  Ca3  1  0.237585  0.288980  0.429849  1
  Ca  Ca4  1  0.711020  0.762415  0.929849  1
  Ca  Ca5  1  0.762415  0.711020  0.570151  1
  Cu  Cu6  1  0.000000  0.500000  0.000000  1
  Cu  Cu7  1  0.500000  0.000000  0.500000  1
  Cu  Cu8  1  0.026071  0.489522  0.160452  1
  Cu  Cu9  1  0.489522  0.026071  0.339548  1
  Cu  Cu10  1  0.973929  0.510478  0.839548  1
  Cu  Cu11  1  0.510478  0.973929  0.660452  1
  Cu  Cu12  1  0.039024  0.982309  0.171371  1
  Cu  Cu13  1  0.982309  0.039024  0.328629  1
  Cu  Cu14  1  0.960976  0.017691  0.828629  1
  Cu  Cu15  1  0.017691  0.960976  0.671371  1
  Si  Si16  1  0.756719  0.752230  0.088524  1
  Si  Si17  1  0.752230  0.756719  0.411476  1
  Si  Si18  1  0.243281  0.247770  0.911476  1
  Si  Si19  1  0.247770  0.243281  0.588524  1
  Si  Si20  1  0.345350  0.743901  0.093097  1
  Si  Si21  1  0.743901  0.345350  0.406903  1
  Si  Si22  1  0.654650  0.256099  0.906903  1
  Si  Si23  1  0.256099  0.654650  0.593097  1
  Si  Si24  1  0.306861  0.762767  0.804298  1
  Si  Si25  1  0.762767  0.306861  0.695702  1
  Si  Si26  1  0.693139  0.237233  0.195702  1
  Si  Si27  1  0.237233  0.693139  0.304298  1
  Si  Si28  1  0.719801  0.719801  0.750000  1
  Si  Si29  1  0.280199  0.280199  0.250000  1
  Si  Si30  1  0.249688  0.819452  0.948721  1
  Si  Si31  1  0.819452  0.249688  0.551279  1
  Si  Si32  1  0.750312  0.180548  0.051279  1
  Si  Si33  1  0.180548  0.750312  0.448721  1
  O  O34  1  0.557318  0.735763  0.128337  1
  O  O35  1  0.735763  0.557318  0.371663  1
  O  O36  1  0.442682  0.264237  0.871663  1
  O  O37  1  0.264237  0.442682  0.628337  1
  O  O38  1  0.917089  0.742570  0.147788  1
  O  O39  1  0.742570  0.917089  0.352212  1
  O  O40  1  0.082911  0.257430  0.852212  1
  O  O41  1  0.257430  0.082911  0.647788  1
  O  O42  1  0.847903  0.764925  0.816059  1
  O  O43  1  0.764925  0.847903  0.683941  1
  O  O44  1  0.152097  0.235075  0.183941  1
  O  O45  1  0.235075  0.152097  0.316059  1
  O  O46  1  0.770339  0.598789  0.031967  1
  O  O47  1  0.598789  0.770339  0.468033  1
  O  O48  1  0.229661  0.401211  0.968033  1
  O  O49  1  0.401211  0.229661  0.531967  1
  O  O50  1  0.194436  0.569922  0.790611  1
  O  O51  1  0.569922  0.194436  0.709389  1
  O  O52  1  0.805564  0.430078  0.209389  1
  O  O53  1  0.430078  0.805564  0.290611  1
  O  O54  1  0.236544  0.547655  0.105417  1
  O  O55  1  0.547655  0.236544  0.394583  1
  O  O56  1  0.763456  0.452345  0.894583  1
  O  O57  1  0.452345  0.763456  0.605417  1
  O  O58  1  0.193858  0.950690  0.784500  1
  O  O59  1  0.950690  0.193858  0.715500  1
  O  O60  1  0.806142  0.049310  0.215500  1
  O  O61  1  0.049310  0.806142  0.284500  1
  O  O62  1  0.388191  0.765399  0.011835  1
  O  O63  1  0.765399  0.388191  0.488165  1
  O  O64  1  0.611809  0.234601  0.988165  1
  O  O65  1  0.234601  0.611809  0.511835  1
  O  O66  1  0.380394  0.772354  0.884031  1
  O  O67  1  0.772354  0.380394  0.615969  1
  O  O68  1  0.619606  0.227646  0.115969  1
  O  O69  1  0.227646  0.619606  0.384031  1
  O  O70  1  0.498878  0.755551  0.761884  1
  O  O71  1  0.755551  0.498878  0.738116  1
  O  O72  1  0.501122  0.244449  0.238116  1
  O  O73  1  0.244449  0.501122  0.261884  1
  O  O74  1  0.043688  0.729129  0.945799  1
  O  O75  1  0.729129  0.043688  0.554201  1
  O  O76  1  0.956312  0.270871  0.054201  1
  O  O77  1  0.270871  0.956312  0.445799  1
  O  O78  1  0.766235  0.952629  0.047867  1
  O  O79  1  0.952629  0.766235  0.452133  1
  O  O80  1  0.233765  0.047371  0.952133  1
  O  O81  1  0.047371  0.233765  0.547867  1
  O  O82  1  0.933609  0.246683  0.385032  1
  O  O83  1  0.246683  0.933609  0.114968  1
  O  O84  1  0.066391  0.753317  0.614968  1
  O  O85  1  0.753317  0.066391  0.885032  1
