# generated using pymatgen
data_Li2Co(SiO3)2
_symmetry_space_group_name_H-M   'P 1'
_cell_length_a   5.60625442
_cell_length_b   5.60625442
_cell_length_c   9.42698387
_cell_angle_alpha   89.32779998
_cell_angle_beta   90.67220002
_cell_angle_gamma   61.83605367
_symmetry_Int_Tables_number   1
_chemical_formula_structural   Li2Co(SiO3)2
_chemical_formula_sum   'Li4 Co2 Si4 O12'
_cell_volume   261.14218006
_cell_formula_units_Z   2
loop_
 _symmetry_equiv_pos_site_id
 _symmetry_equiv_pos_as_xyz
  1  'x, y, z'
loop_
 _atom_site_type_symbol
 _atom_site_label
 _atom_site_symmetry_multiplicity
 _atom_site_fract_x
 _atom_site_fract_y
 _atom_site_fract_z
 _atom_site_occupancy
  Li  Li0  1  0.747133  0.622549  0.886123  1
  Li  Li1  1  0.377451  0.252867  0.386123  1
  Li  Li2  1  0.622549  0.747133  0.613877  1
  Li  Li3  1  0.252867  0.377451  0.113877  1
  Co  Co4  1  0.253394  0.253394  0.750000  1
  Co  Co5  1  0.746606  0.746606  0.250000  1
  Si  Si6  1  0.802376  0.145612  0.632348  1
  Si  Si7  1  0.854388  0.197624  0.132348  1
  Si  Si8  1  0.145612  0.802376  0.867652  1
  Si  Si9  1  0.197624  0.854388  0.367652  1
  O  O10  1  0.861180  0.381919  0.695634  1
  O  O11  1  0.618081  0.138820  0.195634  1
  O  O12  1  0.489371  0.231223  0.589453  1
  O  O13  1  0.768777  0.510629  0.089453  1
  O  O14  1  0.890706  0.890706  0.750000  1
  O  O15  1  1.000000  0.000000  0.500000  1
  O  O16  1  0.109294  0.109294  0.250000  1
  O  O17  1  0.000000  0.000000  0.000000  1
  O  O18  1  0.231223  0.489371  0.910547  1
  O  O19  1  0.510629  0.768777  0.410547  1
  O  O20  1  0.381919  0.861180  0.804366  1
  O  O21  1  0.138820  0.618081  0.304366  1
