# generated using pymatgen
data_Ta3O7F
_symmetry_space_group_name_H-M   'P 1'
_cell_length_a   6.30989157
_cell_length_b   6.30989157
_cell_length_c   3.88686269
_cell_angle_alpha   90.00000000
_cell_angle_beta   90.00000000
_cell_angle_gamma   117.93540132
_symmetry_Int_Tables_number   1
_chemical_formula_structural   Ta3O7F
_chemical_formula_sum   'Ta3 O7 F1'
_cell_volume   136.72184681
_cell_formula_units_Z   1
loop_
 _symmetry_equiv_pos_site_id
 _symmetry_equiv_pos_as_xyz
  1  'x, y, z'
loop_
 _atom_site_type_symbol
 _atom_site_label
 _atom_site_symmetry_multiplicity
 _atom_site_fract_x
 _atom_site_fract_y
 _atom_site_fract_z
 _atom_site_occupancy
  Ta  Ta0  1  0.000000  0.000000  0.000000  1
  Ta  Ta1  1  0.698655  0.301345  0.000000  1
  Ta  Ta2  1  0.301345  0.698655  0.000000  1
  O  O3  1  0.338059  0.046053  0.000000  1
  O  O4  1  0.046053  0.338059  0.000000  1
  O  O5  1  0.000000  0.000000  0.500000  1
  O  O6  1  0.688953  0.311047  0.500000  1
  O  O7  1  0.311047  0.688953  0.500000  1
  O  O8  1  0.661941  0.953947  0.000000  1
  O  O9  1  0.953947  0.661941  0.000000  1
  F  F10  1  0.500000  0.500000  0.000000  1
