# generated using pymatgen
data_LiFeP2HO7
_symmetry_space_group_name_H-M   'P 1'
_cell_length_a   6.49397855
_cell_length_b   6.59822300
_cell_length_c   6.61441315
_cell_angle_alpha   87.08565680
_cell_angle_beta   81.80906617
_cell_angle_gamma   69.34745971
_symmetry_Int_Tables_number   1
_chemical_formula_structural   LiFeP2HO7
_chemical_formula_sum   'Li2 Fe2 P4 H2 O14'
_cell_volume   262.50015070
_cell_formula_units_Z   2
loop_
 _symmetry_equiv_pos_site_id
 _symmetry_equiv_pos_as_xyz
  1  'x, y, z'
loop_
 _atom_site_type_symbol
 _atom_site_label
 _atom_site_symmetry_multiplicity
 _atom_site_fract_x
 _atom_site_fract_y
 _atom_site_fract_z
 _atom_site_occupancy
  Li  Li0  1  0.756016  0.212856  0.136711  1
  Li  Li1  1  0.243984  0.787144  0.863289  1
  Fe  Fe2  1  0.891905  0.722598  0.349264  1
  Fe  Fe3  1  0.108095  0.277402  0.650736  1
  P  P4  1  0.214078  0.244130  0.158846  1
  P  P5  1  0.359430  0.822580  0.386916  1
  P  P6  1  0.640570  0.177420  0.613084  1
  P  P7  1  0.785922  0.755870  0.841154  1
  H  H8  1  0.327441  0.516695  0.177057  1
  H  H9  1  0.672559  0.483305  0.822943  1
  O  O10  1  0.382246  0.369118  0.093638  1
  O  O11  1  0.894520  0.798064  0.015935  1
  O  O12  1  0.379697  0.018698  0.231709  1
  O  O13  1  0.220951  0.719871  0.282228  1
  O  O14  1  0.046597  0.360524  0.337968  1
  O  O15  1  0.597007  0.672946  0.383766  1
  O  O16  1  0.758151  0.074147  0.406991  1
  O  O17  1  0.241849  0.925853  0.593009  1
  O  O18  1  0.402993  0.327054  0.616234  1
  O  O19  1  0.953403  0.639476  0.662032  1
  O  O20  1  0.779049  0.280129  0.717772  1
  O  O21  1  0.620303  0.981302  0.768291  1
  O  O22  1  0.105480  0.201936  0.984065  1
  O  O23  1  0.617754  0.630882  0.906362  1
