# generated using pymatgen
data_VH10S2(NO4)2
_symmetry_space_group_name_H-M   'P 1'
_cell_length_a   7.50767948
_cell_length_b   7.34800584
_cell_length_c   10.24963669
_cell_angle_alpha   90.00000000
_cell_angle_beta   125.83252572
_cell_angle_gamma   90.00000000
_symmetry_Int_Tables_number   1
_chemical_formula_structural   VH10S2(NO4)2
_chemical_formula_sum   'V2 H20 S4 N4 O16'
_cell_volume   458.41708863
_cell_formula_units_Z   2
loop_
 _symmetry_equiv_pos_site_id
 _symmetry_equiv_pos_as_xyz
  1  'x, y, z'
loop_
 _atom_site_type_symbol
 _atom_site_label
 _atom_site_symmetry_multiplicity
 _atom_site_fract_x
 _atom_site_fract_y
 _atom_site_fract_z
 _atom_site_occupancy
  V  V0  1  0.500000  0.000000  0.500000  1
  V  V1  1  0.500000  0.500000  0.000000  1
  H  H2  1  0.068576  0.064227  0.789027  1
  H  H3  1  0.832134  0.134656  0.892657  1
  H  H4  1  0.188249  0.669999  0.974004  1
  H  H5  1  0.931424  0.935773  0.210973  1
  H  H6  1  0.219606  0.723010  0.358770  1
  H  H7  1  0.707205  0.604997  0.542343  1
  H  H8  1  0.780394  0.223010  0.141230  1
  H  H9  1  0.292795  0.104997  0.957657  1
  H  H10  1  0.068576  0.435773  0.289027  1
  H  H11  1  0.188249  0.830001  0.474004  1
  H  H12  1  0.832134  0.365344  0.392657  1
  H  H13  1  0.931424  0.564227  0.710973  1
  H  H14  1  0.167866  0.634656  0.607343  1
  H  H15  1  0.811751  0.169999  0.525996  1
  H  H16  1  0.707205  0.895003  0.042343  1
  H  H17  1  0.219606  0.776990  0.858770  1
  H  H18  1  0.292795  0.395003  0.457657  1
  H  H19  1  0.780394  0.276990  0.641230  1
  H  H20  1  0.167866  0.865344  0.107343  1
  H  H21  1  0.811751  0.330001  0.025996  1
  S  S22  1  0.468450  0.183597  0.753067  1
  S  S23  1  0.468450  0.316403  0.253067  1
  S  S24  1  0.531550  0.683597  0.746933  1
  S  S25  1  0.531550  0.816403  0.246933  1
  N  N26  1  0.606616  0.679315  0.922907  1
  N  N27  1  0.606616  0.820685  0.422907  1
  N  N28  1  0.393384  0.179315  0.577093  1
  N  N29  1  0.393384  0.320685  0.077093  1
  O  O30  1  0.617313  0.857556  0.714472  1
  O  O31  1  0.800393  0.505804  0.617455  1
  O  O32  1  0.246708  0.748426  0.137915  1
  O  O33  1  0.798243  0.352933  0.117676  1
  O  O34  1  0.201757  0.852933  0.382324  1
  O  O35  1  0.753292  0.248426  0.362085  1
  O  O36  1  0.199607  0.005804  0.882545  1
  O  O37  1  0.382687  0.357556  0.785528  1
  O  O38  1  0.617313  0.642444  0.214472  1
  O  O39  1  0.800393  0.994196  0.117455  1
  O  O40  1  0.246708  0.751574  0.637915  1
  O  O41  1  0.798243  0.147067  0.617676  1
  O  O42  1  0.201757  0.647067  0.882324  1
  O  O43  1  0.753292  0.251574  0.862085  1
  O  O44  1  0.199607  0.494196  0.382545  1
  O  O45  1  0.382687  0.142444  0.285528  1
