# generated using pymatgen
data_Li6Cr3P6WO24
_symmetry_space_group_name_H-M   'P 1'
_cell_length_a   8.60120840
_cell_length_b   8.62899506
_cell_length_c   8.63660425
_cell_angle_alpha   61.90252353
_cell_angle_beta   61.88240749
_cell_angle_gamma   61.86558507
_symmetry_Int_Tables_number   1
_chemical_formula_structural   Li6Cr3P6WO24
_chemical_formula_sum   'Li6 Cr3 P6 W1 O24'
_cell_volume   472.37191125
_cell_formula_units_Z   1
loop_
 _symmetry_equiv_pos_site_id
 _symmetry_equiv_pos_as_xyz
  1  'x, y, z'
loop_
 _atom_site_type_symbol
 _atom_site_label
 _atom_site_symmetry_multiplicity
 _atom_site_fract_x
 _atom_site_fract_y
 _atom_site_fract_z
 _atom_site_occupancy
  Li  Li0  1  0.028419  0.006283  0.000788  1
  Li  Li1  1  0.750611  0.144776  0.349211  1
  Li  Li2  1  0.466339  0.502627  0.494901  1
  Li  Li3  1  0.275445  0.837810  0.647752  1
  Li  Li4  1  0.647508  0.276731  0.832373  1
  Li  Li5  1  0.836316  0.649844  0.275659  1
  Cr  Cr6  1  0.140868  0.145755  0.138827  1
  Cr  Cr7  1  0.358568  0.358815  0.353347  1
  Cr  Cr8  1  0.645299  0.647777  0.647157  1
  P  P9  1  0.053533  0.752002  0.441720  1
  P  P10  1  0.442691  0.055047  0.751096  1
  P  P11  1  0.751489  0.445744  0.049397  1
  P  P12  1  0.258760  0.534836  0.956875  1
  P  P13  1  0.536331  0.960190  0.259206  1
  P  P14  1  0.954789  0.257960  0.530823  1
  W  W15  1  0.856649  0.854603  0.854035  1
  O  O16  1  0.126352  0.297175  0.489957  1
  O  O17  1  0.311099  0.504718  0.115716  1
  O  O18  1  0.050474  0.922326  0.261526  1
  O  O19  1  0.527513  0.117096  0.304052  1
  O  O20  1  0.240118  0.593397  0.417939  1
  O  O21  1  0.033416  0.806362  0.598043  1
  O  O22  1  0.255543  0.072831  0.909061  1
  O  O23  1  0.439783  0.235919  0.580974  1
  O  O24  1  0.595165  0.420814  0.241397  1
  O  O25  1  0.199200  0.380155  0.986935  1
  O  O26  1  0.109246  0.732515  0.921848  1
  O  O27  1  0.370224  0.003331  0.209508  1
  O  O28  1  0.599030  0.030144  0.809213  1
  O  O29  1  0.907101  0.253417  0.070333  1
  O  O30  1  0.810347  0.598556  0.027558  1
  O  O31  1  0.424802  0.550083  0.766567  1
  O  O32  1  0.546542  0.772463  0.426708  1
  O  O33  1  0.730212  0.917623  0.108284  1
  O  O34  1  0.966672  0.202808  0.379021  1
  O  O35  1  0.769886  0.428058  0.548907  1
  O  O36  1  0.479448  0.887796  0.699529  1
  O  O37  1  0.921318  0.109133  0.727584  1
  O  O38  1  0.697614  0.482106  0.885485  1
  O  O39  1  0.885281  0.699371  0.481683  1
