# generated using pymatgen
data_Li3MnFe2(BO3)3
_symmetry_space_group_name_H-M   'P 1'
_cell_length_a   8.23384942
_cell_length_b   3.15355916
_cell_length_c   8.25074563
_cell_angle_alpha   90.00000000
_cell_angle_beta   119.81889825
_cell_angle_gamma   90.00000000
_symmetry_Int_Tables_number   1
_chemical_formula_structural   Li3MnFe2(BO3)3
_chemical_formula_sum   'Li3 Mn1 Fe2 B3 O9'
_cell_volume   185.87346212
_cell_formula_units_Z   1
loop_
 _symmetry_equiv_pos_site_id
 _symmetry_equiv_pos_as_xyz
  1  'x, y, z'
loop_
 _atom_site_type_symbol
 _atom_site_label
 _atom_site_symmetry_multiplicity
 _atom_site_fract_x
 _atom_site_fract_y
 _atom_site_fract_z
 _atom_site_occupancy
  Li  Li0  1  0.716346  0.500000  0.698033  1
  Li  Li1  1  0.984151  0.500000  0.285253  1
  Li  Li2  1  0.301568  0.500000  0.016296  1
  Mn  Mn3  1  0.627220  0.000000  0.987847  1
  Fe  Fe4  1  0.359097  0.000000  0.366942  1
  Fe  Fe5  1  0.007610  0.000000  0.640388  1
  B  B6  1  0.002418  0.000000  0.001815  1
  B  B7  1  0.666616  0.500000  0.335478  1
  B  B8  1  0.331272  0.500000  0.663780  1
  O  O9  1  0.891225  0.000000  0.807455  1
  O  O10  1  0.861422  0.500000  0.443623  1
  O  O11  1  0.920015  0.000000  0.113589  1
  O  O12  1  0.557738  0.500000  0.421241  1
  O  O13  1  0.581021  0.500000  0.141796  1
  O  O14  1  0.525599  0.500000  0.777050  1
  O  O15  1  0.196668  0.000000  0.083854  1
  O  O16  1  0.217669  0.500000  0.744985  1
  O  O17  1  0.252344  0.500000  0.470573  1
