# generated using pymatgen
data_LiMn7O7F
_symmetry_space_group_name_H-M   'P 1'
_cell_length_a   3.48212650
_cell_length_b   3.48212650
_cell_length_c   21.50007363
_cell_angle_alpha   90.00000000
_cell_angle_beta   90.00000000
_cell_angle_gamma   120.00000000
_symmetry_Int_Tables_number   1
_chemical_formula_structural   LiMn7O7F
_chemical_formula_sum   'Li1 Mn7 O7 F1'
_cell_volume   225.76658648
_cell_formula_units_Z   1
loop_
 _symmetry_equiv_pos_site_id
 _symmetry_equiv_pos_as_xyz
  1  'x, y, z'
loop_
 _atom_site_type_symbol
 _atom_site_label
 _atom_site_symmetry_multiplicity
 _atom_site_fract_x
 _atom_site_fract_y
 _atom_site_fract_z
 _atom_site_occupancy
  Li  Li0  1  0.666667  0.333333  0.964234  1
  Mn  Mn1  1  0.333333  0.666667  0.347079  1
  Mn  Mn2  1  0.333333  0.666667  0.096611  1
  Mn  Mn3  1  0.333333  0.666667  0.597756  1
  Mn  Mn4  1  0.333333  0.666667  0.849933  1
  Mn  Mn5  1  0.666667  0.333333  0.221788  1
  Mn  Mn6  1  0.666667  0.333333  0.723985  1
  Mn  Mn7  1  0.666667  0.333333  0.472298  1
  O  O8  1  0.333333  0.666667  0.247326  1
  O  O9  1  0.333333  0.666667  0.750202  1
  O  O10  1  0.333333  0.666667  0.498307  1
  O  O11  1  0.666667  0.333333  0.372872  1
  O  O12  1  0.666667  0.333333  0.121309  1
  O  O13  1  0.666667  0.333333  0.875695  1
  O  O14  1  0.666667  0.333333  0.624198  1
  F  F15  1  0.333333  0.666667  0.997265  1
