# generated using pymatgen
data_TiCu(PO4)2
_symmetry_space_group_name_H-M   'P 1'
_cell_length_a   8.58531863
_cell_length_b   8.58531863
_cell_length_c   8.58531863
_cell_angle_alpha   60.20147381
_cell_angle_beta   60.20147381
_cell_angle_gamma   60.20147381
_symmetry_Int_Tables_number   1
_chemical_formula_structural   TiCu(PO4)2
_chemical_formula_sum   'Ti3 Cu3 P6 O24'
_cell_volume   449.50138591
_cell_formula_units_Z   3
loop_
 _symmetry_equiv_pos_site_id
 _symmetry_equiv_pos_as_xyz
  1  'x, y, z'
loop_
 _atom_site_type_symbol
 _atom_site_label
 _atom_site_symmetry_multiplicity
 _atom_site_fract_x
 _atom_site_fract_y
 _atom_site_fract_z
 _atom_site_occupancy
  Ti  Ti0  1  0.643415  0.643415  0.643415  1
  Ti  Ti1  1  0.857346  0.857346  0.857346  1
  Ti  Ti2  1  0.356658  0.356658  0.356658  1
  Cu  Cu3  1  0.002750  0.002750  0.002750  1
  Cu  Cu4  1  0.144792  0.144792  0.144792  1
  Cu  Cu5  1  0.500539  0.500539  0.500539  1
  P  P6  1  0.958866  0.248436  0.539085  1
  P  P7  1  0.539085  0.958866  0.248436  1
  P  P8  1  0.248436  0.539085  0.958866  1
  P  P9  1  0.753238  0.455154  0.042102  1
  P  P10  1  0.455154  0.042102  0.753238  1
  P  P11  1  0.042102  0.753238  0.455154  1
  O  O12  1  0.497836  0.124099  0.306292  1
  O  O13  1  0.306292  0.497836  0.124099  1
  O  O14  1  0.124099  0.306292  0.497836  1
  O  O15  1  0.944295  0.084359  0.735852  1
  O  O16  1  0.985090  0.194725  0.383668  1
  O  O17  1  0.766036  0.415728  0.563169  1
  O  O18  1  0.735852  0.944295  0.084359  1
  O  O19  1  0.563169  0.766036  0.415728  1
  O  O20  1  0.808845  0.621943  0.999223  1
  O  O21  1  0.415728  0.563169  0.766036  1
  O  O22  1  0.916315  0.263579  0.051695  1
  O  O23  1  0.621943  0.999223  0.808845  1
  O  O24  1  0.383668  0.985090  0.194725  1
  O  O25  1  0.084359  0.735852  0.944295  1
  O  O26  1  0.584952  0.443861  0.233766  1
  O  O27  1  0.194725  0.383668  0.985090  1
  O  O28  1  0.443861  0.233766  0.584952  1
  O  O29  1  0.263579  0.051695  0.916315  1
  O  O30  1  0.233766  0.584952  0.443861  1
  O  O31  1  0.999223  0.808845  0.621943  1
  O  O32  1  0.051695  0.916315  0.263579  1
  O  O33  1  0.878659  0.690934  0.502686  1
  O  O34  1  0.690934  0.502686  0.878659  1
  O  O35  1  0.502686  0.878659  0.690934  1
