# generated using pymatgen
data_LiSbP2O7
_symmetry_space_group_name_H-M   'P 1'
_cell_length_a   6.90735772
_cell_length_b   10.25891366
_cell_length_c   8.71579411
_cell_angle_alpha   90.00000000
_cell_angle_beta   112.67512339
_cell_angle_gamma   90.00000000
_symmetry_Int_Tables_number   1
_chemical_formula_structural   LiSbP2O7
_chemical_formula_sum   'Li4 Sb4 P8 O28'
_cell_volume   569.88000601
_cell_formula_units_Z   4
loop_
 _symmetry_equiv_pos_site_id
 _symmetry_equiv_pos_as_xyz
  1  'x, y, z'
loop_
 _atom_site_type_symbol
 _atom_site_label
 _atom_site_symmetry_multiplicity
 _atom_site_fract_x
 _atom_site_fract_y
 _atom_site_fract_z
 _atom_site_occupancy
  Li  Li0  1  0.250801  0.084704  0.242773  1
  Li  Li1  1  0.250801  0.415296  0.742773  1
  Li  Li2  1  0.749199  0.584704  0.257227  1
  Li  Li3  1  0.749199  0.915296  0.757227  1
  Sb  Sb4  1  0.379824  0.710368  0.382344  1
  Sb  Sb5  1  0.379824  0.789632  0.882344  1
  Sb  Sb6  1  0.620176  0.210368  0.117656  1
  Sb  Sb7  1  0.620176  0.289632  0.617656  1
  P  P8  1  0.030831  0.334202  0.297324  1
  P  P9  1  0.030831  0.165798  0.797324  1
  P  P10  1  0.348575  0.402905  0.170666  1
  P  P11  1  0.348575  0.097095  0.670666  1
  P  P12  1  0.651425  0.902905  0.329334  1
  P  P13  1  0.651425  0.597095  0.829334  1
  P  P14  1  0.969169  0.834202  0.202676  1
  P  P15  1  0.969169  0.665798  0.702676  1
  O  O16  1  0.981849  0.186948  0.255115  1
  O  O17  1  0.190752  0.372291  0.464321  1
  O  O18  1  0.191442  0.894327  0.255043  1
  O  O19  1  0.110976  0.388446  0.152651  1
  O  O20  1  0.981849  0.313052  0.755115  1
  O  O21  1  0.190752  0.127709  0.964321  1
  O  O22  1  0.372509  0.107765  0.505932  1
  O  O23  1  0.191442  0.605673  0.755043  1
  O  O24  1  0.110976  0.111554  0.652651  1
  O  O25  1  0.464788  0.276658  0.271152  1
  O  O26  1  0.372509  0.392235  0.005932  1
  O  O27  1  0.438330  0.528112  0.269028  1
  O  O28  1  0.561670  0.028112  0.230972  1
  O  O29  1  0.535212  0.776658  0.228848  1
  O  O30  1  0.464788  0.223342  0.771152  1
  O  O31  1  0.438330  0.971888  0.769028  1
  O  O32  1  0.561670  0.471888  0.730972  1
  O  O33  1  0.627491  0.607765  0.994068  1
  O  O34  1  0.535212  0.723342  0.728848  1
  O  O35  1  0.889024  0.888446  0.347349  1
  O  O36  1  0.808558  0.394327  0.244957  1
  O  O37  1  0.627491  0.892235  0.494068  1
  O  O38  1  0.809248  0.872291  0.035679  1
  O  O39  1  0.018151  0.686948  0.244885  1
  O  O40  1  0.889024  0.611554  0.847349  1
  O  O41  1  0.808558  0.105673  0.744957  1
  O  O42  1  0.809248  0.627709  0.535679  1
  O  O43  1  0.018151  0.813052  0.744885  1
