# generated using pymatgen
data_Li8Mn(O2F)2
_symmetry_space_group_name_H-M   'P 1'
_cell_length_a   5.56749519
_cell_length_b   5.57421672
_cell_length_c   11.08929163
_cell_angle_alpha   75.93718554
_cell_angle_beta   76.15940205
_cell_angle_gamma   60.09525298
_symmetry_Int_Tables_number   1
_chemical_formula_structural   Li8Mn(O2F)2
_chemical_formula_sum   'Li16 Mn2 O8 F4'
_cell_volume   286.51981266
_cell_formula_units_Z   2
loop_
 _symmetry_equiv_pos_site_id
 _symmetry_equiv_pos_as_xyz
  1  'x, y, z'
loop_
 _atom_site_type_symbol
 _atom_site_label
 _atom_site_symmetry_multiplicity
 _atom_site_fract_x
 _atom_site_fract_y
 _atom_site_fract_z
 _atom_site_occupancy
  Li  Li0  1  0.223500  0.888189  0.323480  1
  Li  Li1  1  0.428409  0.794037  0.686246  1
  Li  Li2  1  0.587883  0.932974  0.185424  1
  Li  Li3  1  0.582439  0.727785  0.991745  1
  Li  Li4  1  0.763042  0.813128  0.512941  1
  Li  Li5  1  0.689106  0.409333  0.818789  1
  Li  Li6  1  0.910390  0.574043  0.329424  1
  Li  Li7  1  0.053638  0.723994  0.830300  1
  Li  Li8  1  0.946362  0.276006  0.169700  1
  Li  Li9  1  0.089610  0.425957  0.670576  1
  Li  Li10  1  0.310894  0.590667  0.181211  1
  Li  Li11  1  0.417561  0.272215  0.008255  1
  Li  Li12  1  0.236958  0.186872  0.487059  1
  Li  Li13  1  0.412117  0.067026  0.814576  1
  Li  Li14  1  0.571591  0.205963  0.313754  1
  Li  Li15  1  0.776500  0.111811  0.676520  1
  Mn  Mn16  1  0.000000  0.000000  0.000000  1
  Mn  Mn17  1  0.500000  0.500000  0.500000  1
  O  O18  1  0.286350  0.960206  0.119054  1
  O  O19  1  0.358358  0.731686  0.875943  1
  O  O20  1  0.540052  0.866609  0.380102  1
  O  O21  1  0.763728  0.470619  0.623477  1
  O  O22  1  0.236272  0.529381  0.376523  1
  O  O23  1  0.459948  0.133391  0.619898  1
  O  O24  1  0.641642  0.268314  0.124057  1
  O  O25  1  0.713650  0.039794  0.880946  1
  F  F26  1  0.960401  0.617189  0.144575  1
  F  F27  1  0.112483  0.778748  0.642572  1
  F  F28  1  0.887517  0.221252  0.357428  1
  F  F29  1  0.039599  0.382811  0.855425  1
