# generated using pymatgen
data_Li8Co(O2F)2
_symmetry_space_group_name_H-M   'P 1'
_cell_length_a   5.47330129
_cell_length_b   5.51797471
_cell_length_c   10.78658204
_cell_angle_alpha   75.66238334
_cell_angle_beta   76.73744244
_cell_angle_gamma   60.92724699
_symmetry_Int_Tables_number   1
_chemical_formula_structural   Li8Co(O2F)2
_chemical_formula_sum   'Li16 Co2 O8 F4'
_cell_volume   273.55858141
_cell_formula_units_Z   2
loop_
 _symmetry_equiv_pos_site_id
 _symmetry_equiv_pos_as_xyz
  1  'x, y, z'
loop_
 _atom_site_type_symbol
 _atom_site_label
 _atom_site_symmetry_multiplicity
 _atom_site_fract_x
 _atom_site_fract_y
 _atom_site_fract_z
 _atom_site_occupancy
  Li  Li0  1  0.224974  0.882874  0.322454  1
  Li  Li1  1  0.423026  0.795918  0.683940  1
  Li  Li2  1  0.592251  0.933378  0.182003  1
  Li  Li3  1  0.764897  0.823259  0.513907  1
  Li  Li4  1  0.586833  0.715350  0.996957  1
  Li  Li5  1  0.049130  0.724556  0.832806  1
  Li  Li6  1  0.906858  0.566678  0.335201  1
  Li  Li7  1  0.694291  0.412118  0.820134  1
  Li  Li8  1  0.305709  0.587882  0.179866  1
  Li  Li9  1  0.093142  0.433322  0.664799  1
  Li  Li10  1  0.950870  0.275444  0.167194  1
  Li  Li11  1  0.413167  0.284650  0.003043  1
  Li  Li12  1  0.235103  0.176741  0.486093  1
  Li  Li13  1  0.576974  0.204082  0.316060  1
  Li  Li14  1  0.407749  0.066622  0.817997  1
  Li  Li15  1  0.775026  0.117126  0.677546  1
  Co  Co16  1  0.000000  0.000000  0.000000  1
  Co  Co17  1  0.500000  0.500000  0.500000  1
  O  O18  1  0.279140  0.960174  0.116926  1
  O  O19  1  0.353413  0.730351  0.879567  1
  O  O20  1  0.541199  0.859080  0.381353  1
  O  O21  1  0.755298  0.477502  0.621331  1
  O  O22  1  0.244702  0.522498  0.378669  1
  O  O23  1  0.458801  0.140920  0.618647  1
  O  O24  1  0.646587  0.269649  0.120433  1
  O  O25  1  0.720860  0.039826  0.883074  1
  F  F26  1  0.957090  0.617775  0.143109  1
  F  F27  1  0.104784  0.789245  0.637607  1
  F  F28  1  0.895216  0.210755  0.362393  1
  F  F29  1  0.042910  0.382225  0.856891  1
