# generated using pymatgen
data_Li4Mn3Fe3(NiO8)2
_symmetry_space_group_name_H-M   'P 1'
_cell_length_a   5.86128251
_cell_length_b   5.86128251
_cell_length_c   9.60446936
_cell_angle_alpha   89.80920266
_cell_angle_beta   90.19079734
_cell_angle_gamma   120.18310532
_symmetry_Int_Tables_number   1
_chemical_formula_structural   Li4Mn3Fe3(NiO8)2
_chemical_formula_sum   'Li4 Mn3 Fe3 Ni2 O16'
_cell_volume   285.22122315
_cell_formula_units_Z   1
loop_
 _symmetry_equiv_pos_site_id
 _symmetry_equiv_pos_as_xyz
  1  'x, y, z'
loop_
 _atom_site_type_symbol
 _atom_site_label
 _atom_site_symmetry_multiplicity
 _atom_site_fract_x
 _atom_site_fract_y
 _atom_site_fract_z
 _atom_site_occupancy
  Li  Li0  1  0.667518  0.332482  0.892079  1
  Li  Li1  1  0.999143  0.000857  0.998450  1
  Li  Li2  1  0.000122  0.999878  0.497878  1
  Li  Li3  1  0.332932  0.667068  0.391404  1
  Mn  Mn4  1  0.830139  0.169861  0.213688  1
  Mn  Mn5  1  0.168788  0.337551  0.714852  1
  Mn  Mn6  1  0.662449  0.831212  0.714852  1
  Fe  Fe7  1  0.337755  0.169308  0.214363  1
  Fe  Fe8  1  0.830692  0.662245  0.214363  1
  Fe  Fe9  1  0.168580  0.831420  0.714804  1
  Ni  Ni10  1  0.667348  0.332652  0.489344  1
  Ni  Ni11  1  0.332815  0.667185  0.987413  1
  O  O12  1  0.319779  0.161474  0.607142  1
  O  O13  1  0.518134  0.481866  0.333225  1
  O  O14  1  0.672987  0.327013  0.101225  1
  O  O15  1  0.993366  0.006634  0.313553  1
  O  O16  1  0.992927  0.007073  0.813805  1
  O  O17  1  0.838526  0.680221  0.607142  1
  O  O18  1  0.521601  0.036679  0.332421  1
  O  O19  1  0.963321  0.478399  0.332421  1
  O  O20  1  0.160873  0.839127  0.105270  1
  O  O21  1  0.841728  0.158272  0.606104  1
  O  O22  1  0.036983  0.515182  0.832020  1
  O  O23  1  0.484818  0.963017  0.832020  1
  O  O24  1  0.341171  0.658829  0.605572  1
  O  O25  1  0.157720  0.321209  0.104894  1
  O  O26  1  0.481476  0.518524  0.832566  1
  O  O27  1  0.678791  0.842280  0.104894  1
