# generated using pymatgen
data_Li2Cr(Si2O5)3
_symmetry_space_group_name_H-M   'P 1'
_cell_length_a   10.01282034
_cell_length_b   10.01282034
_cell_length_c   14.23952990
_cell_angle_alpha   90.00000000
_cell_angle_beta   90.00000000
_cell_angle_gamma   120.00000000
_symmetry_Int_Tables_number   1
_chemical_formula_structural   Li2Cr(Si2O5)3
_chemical_formula_sum   'Li8 Cr4 Si24 O60'
_cell_volume   1236.34344710
_cell_formula_units_Z   4
loop_
 _symmetry_equiv_pos_site_id
 _symmetry_equiv_pos_as_xyz
  1  'x, y, z'
loop_
 _atom_site_type_symbol
 _atom_site_label
 _atom_site_symmetry_multiplicity
 _atom_site_fract_x
 _atom_site_fract_y
 _atom_site_fract_z
 _atom_site_occupancy
  Li  Li0  1  0.499811  0.000000  0.500000  1
  Li  Li1  1  0.000000  0.499811  0.500000  1
  Li  Li2  1  0.000000  0.499811  0.000000  1
  Li  Li3  1  0.499811  0.000000  0.000000  1
  Li  Li4  1  0.500189  0.500189  0.500000  1
  Li  Li5  1  0.500189  0.500189  0.000000  1
  Li  Li6  1  0.333333  0.666667  0.750000  1
  Li  Li7  1  0.666667  0.333333  0.250000  1
  Cr  Cr8  1  0.333333  0.666667  0.001571  1
  Cr  Cr9  1  0.666667  0.333333  0.501571  1
  Cr  Cr10  1  0.666667  0.333333  0.998429  1
  Cr  Cr11  1  0.333333  0.666667  0.498429  1
  Si  Si12  1  0.127102  0.361091  0.638391  1
  Si  Si13  1  0.361091  0.127102  0.138391  1
  Si  Si14  1  0.361091  0.127102  0.361609  1
  Si  Si15  1  0.127102  0.361091  0.861609  1
  Si  Si16  1  0.234890  0.361667  0.360792  1
  Si  Si17  1  0.361667  0.234890  0.639208  1
  Si  Si18  1  0.361667  0.234890  0.860792  1
  Si  Si19  1  0.234890  0.361667  0.139208  1
  Si  Si20  1  0.126776  0.765110  0.360792  1
  Si  Si21  1  0.765110  0.126776  0.639208  1
  Si  Si22  1  0.765110  0.126776  0.860792  1
  Si  Si23  1  0.126776  0.765110  0.139208  1
  Si  Si24  1  0.872898  0.233989  0.361609  1
  Si  Si25  1  0.872898  0.233989  0.138391  1
  Si  Si26  1  0.233989  0.872898  0.638391  1
  Si  Si27  1  0.233989  0.872898  0.861609  1
  Si  Si28  1  0.638909  0.766011  0.638391  1
  Si  Si29  1  0.766011  0.638909  0.138391  1
  Si  Si30  1  0.766011  0.638909  0.361609  1
  Si  Si31  1  0.638909  0.766011  0.861609  1
  Si  Si32  1  0.873224  0.638333  0.639208  1
  Si  Si33  1  0.638333  0.873224  0.360792  1
  Si  Si34  1  0.873224  0.638333  0.860792  1
  Si  Si35  1  0.638333  0.873224  0.139208  1
  O  O36  1  0.051401  0.285056  0.383254  1
  O  O37  1  0.285056  0.051401  0.616746  1
  O  O38  1  0.285056  0.051401  0.883254  1
  O  O39  1  0.051401  0.285056  0.116746  1
  O  O40  1  0.283942  0.232268  0.385060  1
  O  O41  1  0.232268  0.283942  0.614940  1
  O  O42  1  0.283942  0.232268  0.114940  1
  O  O43  1  0.232268  0.283942  0.885060  1
  O  O44  1  0.418948  0.154252  0.250000  1
  O  O45  1  0.154252  0.418948  0.750000  1
  O  O46  1  0.265463  0.406399  0.250000  1
  O  O47  1  0.406399  0.265463  0.750000  1
  O  O48  1  0.513939  0.170328  0.422108  1
  O  O49  1  0.513939  0.170328  0.077892  1
  O  O50  1  0.170328  0.513939  0.577892  1
  O  O51  1  0.170328  0.513939  0.922108  1
  O  O52  1  0.657662  0.168863  0.575326  1
  O  O53  1  0.168863  0.657662  0.424674  1
  O  O54  1  0.657662  0.168863  0.924674  1
  O  O55  1  0.168863  0.657662  0.075326  1
  O  O56  1  0.767732  0.051674  0.114940  1
  O  O57  1  0.767732  0.051674  0.385060  1
  O  O58  1  0.051674  0.767732  0.614940  1
  O  O59  1  0.051674  0.767732  0.885060  1
  O  O60  1  0.511200  0.342338  0.575326  1
  O  O61  1  0.342338  0.511200  0.424674  1
  O  O62  1  0.511200  0.342338  0.924674  1
  O  O63  1  0.342338  0.511200  0.075326  1
  O  O64  1  0.140935  0.734537  0.250000  1
  O  O65  1  0.734537  0.140935  0.750000  1
  O  O66  1  0.845748  0.264696  0.250000  1
  O  O67  1  0.264696  0.845748  0.750000  1
  O  O68  1  0.656389  0.486061  0.422108  1
  O  O69  1  0.656389  0.486061  0.077892  1
  O  O70  1  0.486061  0.656389  0.577892  1
  O  O71  1  0.486061  0.656389  0.922108  1
  O  O72  1  0.948599  0.233655  0.616746  1
  O  O73  1  0.233655  0.948599  0.383254  1
  O  O74  1  0.948599  0.233655  0.883254  1
  O  O75  1  0.233655  0.948599  0.116746  1
  O  O76  1  0.829672  0.343611  0.422108  1
  O  O77  1  0.343611  0.829672  0.577892  1
  O  O78  1  0.829672  0.343611  0.077892  1
  O  O79  1  0.343611  0.829672  0.922108  1
  O  O80  1  0.488800  0.831137  0.424674  1
  O  O81  1  0.831137  0.488800  0.575326  1
  O  O82  1  0.831137  0.488800  0.924674  1
  O  O83  1  0.488800  0.831137  0.075326  1
  O  O84  1  0.735304  0.581052  0.250000  1
  O  O85  1  0.581052  0.735304  0.750000  1
  O  O86  1  0.593601  0.859065  0.250000  1
  O  O87  1  0.859065  0.593601  0.750000  1
  O  O88  1  0.714944  0.766345  0.116746  1
  O  O89  1  0.766345  0.714944  0.616746  1
  O  O90  1  0.714944  0.766345  0.383254  1
  O  O91  1  0.766345  0.714944  0.883254  1
  O  O92  1  0.948326  0.716058  0.114940  1
  O  O93  1  0.948326  0.716058  0.385060  1
  O  O94  1  0.716058  0.948326  0.614940  1
  O  O95  1  0.716058  0.948326  0.885060  1
