# generated using pymatgen
data_LiMnPO4F
_symmetry_space_group_name_H-M   'P 1'
_cell_length_a   6.16141670
_cell_length_b   10.85759953
_cell_length_c   12.52220326
_cell_angle_alpha   90.00000000
_cell_angle_beta   90.00000000
_cell_angle_gamma   90.00000000
_symmetry_Int_Tables_number   1
_chemical_formula_structural   LiMnPO4F
_chemical_formula_sum   'Li8 Mn8 P8 O32 F8'
_cell_volume   837.71279634
_cell_formula_units_Z   8
loop_
 _symmetry_equiv_pos_site_id
 _symmetry_equiv_pos_as_xyz
  1  'x, y, z'
loop_
 _atom_site_type_symbol
 _atom_site_label
 _atom_site_symmetry_multiplicity
 _atom_site_fract_x
 _atom_site_fract_y
 _atom_site_fract_z
 _atom_site_occupancy
  Li  Li0  1  0.801345  0.172444  0.386121  1
  Li  Li1  1  0.698655  0.172444  0.886121  1
  Li  Li2  1  0.601371  0.465384  0.605754  1
  Li  Li3  1  0.898629  0.465384  0.105754  1
  Li  Li4  1  0.301345  0.672444  0.113879  1
  Li  Li5  1  0.198655  0.672444  0.613879  1
  Li  Li6  1  0.398629  0.965384  0.394246  1
  Li  Li7  1  0.101371  0.965384  0.894246  1
  Mn  Mn8  1  0.990800  0.004535  0.122095  1
  Mn  Mn9  1  0.509200  0.004535  0.622095  1
  Mn  Mn10  1  0.235812  0.246846  0.258139  1
  Mn  Mn11  1  0.264188  0.246846  0.758139  1
  Mn  Mn12  1  0.490800  0.504535  0.377905  1
  Mn  Mn13  1  0.009200  0.504535  0.877905  1
  Mn  Mn14  1  0.735812  0.746846  0.241861  1
  Mn  Mn15  1  0.764188  0.746846  0.741861  1
  P  P16  1  0.349427  0.241346  0.504656  1
  P  P17  1  0.150573  0.241346  0.004656  1
  P  P18  1  0.991271  0.502238  0.315300  1
  P  P19  1  0.508729  0.502238  0.815300  1
  P  P20  1  0.849427  0.741346  0.995344  1
  P  P21  1  0.650573  0.741346  0.495344  1
  P  P22  1  0.491271  0.002238  0.184700  1
  P  P23  1  0.008729  0.002238  0.684700  1
  O  O24  1  0.816257  0.030291  0.610864  1
  O  O25  1  0.683743  0.030291  0.110864  1
  O  O26  1  0.060474  0.104026  0.770236  1
  O  O27  1  0.439526  0.104026  0.270236  1
  O  O28  1  0.010443  0.119135  0.997731  1
  O  O29  1  0.489557  0.119135  0.497731  1
  O  O30  1  0.181027  0.239382  0.411728  1
  O  O31  1  0.318973  0.239382  0.911728  1
  O  O32  1  0.285396  0.243822  0.107716  1
  O  O33  1  0.214604  0.243822  0.607716  1
  O  O34  1  0.504738  0.351038  0.496111  1
  O  O35  1  0.995262  0.351038  0.996111  1
  O  O36  1  0.033312  0.388370  0.242315  1
  O  O37  1  0.466688  0.388370  0.742315  1
  O  O38  1  0.797899  0.481544  0.390406  1
  O  O39  1  0.702101  0.481544  0.890406  1
  O  O40  1  0.183743  0.530291  0.389136  1
  O  O41  1  0.316257  0.530291  0.889136  1
  O  O42  1  0.939526  0.604026  0.229764  1
  O  O43  1  0.560474  0.604026  0.729764  1
  O  O44  1  0.510443  0.619135  0.502269  1
  O  O45  1  0.989557  0.619135  0.002269  1
  O  O46  1  0.681027  0.739382  0.088272  1
  O  O47  1  0.818973  0.739382  0.588272  1
  O  O48  1  0.785396  0.743822  0.392284  1
  O  O49  1  0.714604  0.743822  0.892284  1
  O  O50  1  0.004738  0.851038  0.003889  1
  O  O51  1  0.495262  0.851038  0.503889  1
  O  O52  1  0.966688  0.888370  0.757685  1
  O  O53  1  0.533312  0.888370  0.257685  1
  O  O54  1  0.297899  0.981544  0.109594  1
  O  O55  1  0.202101  0.981544  0.609594  1
  F  F56  1  0.958598  0.129745  0.259217  1
  F  F57  1  0.541402  0.129745  0.759217  1
  F  F58  1  0.486165  0.379853  0.270283  1
  F  F59  1  0.013835  0.379853  0.770283  1
  F  F60  1  0.458598  0.629745  0.240783  1
  F  F61  1  0.041402  0.629745  0.740783  1
  F  F62  1  0.986165  0.879853  0.229717  1
  F  F63  1  0.513835  0.879853  0.729717  1
