# generated using pymatgen
data_Mn2VO4
_symmetry_space_group_name_H-M   'P 1'
_cell_length_a   6.18119189
_cell_length_b   6.18119189
_cell_length_c   6.18119189
_cell_angle_alpha   59.60176245
_cell_angle_beta   59.60176245
_cell_angle_gamma   59.60176245
_symmetry_Int_Tables_number   1
_chemical_formula_structural   Mn2VO4
_chemical_formula_sum   'Mn4 V2 O8'
_cell_volume   165.48278351
_cell_formula_units_Z   2
loop_
 _symmetry_equiv_pos_site_id
 _symmetry_equiv_pos_as_xyz
  1  'x, y, z'
loop_
 _atom_site_type_symbol
 _atom_site_label
 _atom_site_symmetry_multiplicity
 _atom_site_fract_x
 _atom_site_fract_y
 _atom_site_fract_z
 _atom_site_occupancy
  Mn  Mn0  1  0.873336  0.376708  0.376708  1
  Mn  Mn1  1  0.745092  0.745092  0.745092  1
  Mn  Mn2  1  0.376708  0.873336  0.376708  1
  Mn  Mn3  1  0.376708  0.376708  0.873336  1
  V  V4  1  0.378722  0.378722  0.378722  1
  V  V5  1  0.005793  0.005793  0.005793  1
  O  O6  1  0.601001  0.601001  0.153730  1
  O  O7  1  0.601001  0.153730  0.601001  1
  O  O8  1  0.133167  0.133167  0.133167  1
  O  O9  1  0.138522  0.615715  0.138522  1
  O  O10  1  0.615715  0.138522  0.138522  1
  O  O11  1  0.138522  0.138522  0.615715  1
  O  O12  1  0.153730  0.601001  0.601001  1
  O  O13  1  0.611977  0.611977  0.611977  1
