# generated using pymatgen
data_KLiTi2(PO5)2
_symmetry_space_group_name_H-M   'P 1'
_cell_length_a   6.50863990
_cell_length_b   10.61612643
_cell_length_c   12.83558917
_cell_angle_alpha   90.00000000
_cell_angle_beta   90.00000000
_cell_angle_gamma   90.00000000
_symmetry_Int_Tables_number   1
_chemical_formula_structural   KLiTi2(PO5)2
_chemical_formula_sum   'K4 Li4 Ti8 P8 O40'
_cell_volume   886.89485269
_cell_formula_units_Z   4
loop_
 _symmetry_equiv_pos_site_id
 _symmetry_equiv_pos_as_xyz
  1  'x, y, z'
loop_
 _atom_site_type_symbol
 _atom_site_label
 _atom_site_symmetry_multiplicity
 _atom_site_fract_x
 _atom_site_fract_y
 _atom_site_fract_z
 _atom_site_occupancy
  K  K0  1  0.635712  0.099713  0.091280  1
  K  K1  1  0.135712  0.599713  0.408720  1
  K  K2  1  0.864288  0.099713  0.591280  1
  K  K3  1  0.364288  0.599713  0.908720  1
  Li  Li4  1  0.069887  0.993901  0.106347  1
  Li  Li5  1  0.569887  0.493901  0.393653  1
  Li  Li6  1  0.430113  0.993901  0.606347  1
  Li  Li7  1  0.930113  0.493901  0.893653  1
  Ti  Ti8  1  0.998295  0.512918  0.133679  1
  Ti  Ti9  1  0.746936  0.763947  0.247568  1
  Ti  Ti10  1  0.246936  0.263947  0.252432  1
  Ti  Ti11  1  0.498295  0.012918  0.366321  1
  Ti  Ti12  1  0.501705  0.512918  0.633679  1
  Ti  Ti13  1  0.753064  0.763947  0.747568  1
  Ti  Ti14  1  0.253064  0.263947  0.752432  1
  Ti  Ti15  1  0.001705  0.012918  0.866321  1
  P  P16  1  0.842582  0.761165  0.998773  1
  P  P17  1  0.501300  0.512266  0.183436  1
  P  P18  1  0.001300  0.012266  0.316564  1
  P  P19  1  0.342582  0.261165  0.501227  1
  P  P20  1  0.657418  0.761165  0.498773  1
  P  P21  1  0.998700  0.512266  0.683436  1
  P  P22  1  0.498700  0.012266  0.816564  1
  P  P23  1  0.157418  0.261165  0.001227  1
  O  O24  1  0.975294  0.638963  0.002386  1
  O  O25  1  0.023696  0.381913  0.006329  1
  O  O26  1  0.300509  0.248757  0.097755  1
  O  O27  1  0.703074  0.773926  0.096670  1
  O  O28  1  0.690213  0.486167  0.114383  1
  O  O29  1  0.311835  0.540093  0.115779  1
  O  O30  1  0.045628  0.387401  0.225986  1
  O  O31  1  0.958365  0.640034  0.224363  1
  O  O32  1  0.044373  0.122423  0.237726  1
  O  O33  1  0.961641  0.900432  0.239066  1
  O  O34  1  0.461641  0.400432  0.260934  1
  O  O35  1  0.544373  0.622423  0.262274  1
  O  O36  1  0.458365  0.140034  0.275637  1
  O  O37  1  0.545628  0.887401  0.274014  1
  O  O38  1  0.811835  0.040093  0.384221  1
  O  O39  1  0.190213  0.986167  0.385617  1
  O  O40  1  0.203074  0.273926  0.403330  1
  O  O41  1  0.800509  0.748757  0.402245  1
  O  O42  1  0.523696  0.881913  0.493671  1
  O  O43  1  0.475294  0.138963  0.497614  1
  O  O44  1  0.524706  0.638963  0.502386  1
  O  O45  1  0.476304  0.381913  0.506329  1
  O  O46  1  0.199491  0.248757  0.597755  1
  O  O47  1  0.796926  0.773926  0.596670  1
  O  O48  1  0.809787  0.486167  0.614383  1
  O  O49  1  0.188165  0.540093  0.615779  1
  O  O50  1  0.454372  0.387401  0.725986  1
  O  O51  1  0.541635  0.640034  0.724363  1
  O  O52  1  0.455627  0.122423  0.737726  1
  O  O53  1  0.538359  0.900432  0.739066  1
  O  O54  1  0.038359  0.400432  0.760934  1
  O  O55  1  0.955627  0.622423  0.762274  1
  O  O56  1  0.041635  0.140034  0.775637  1
  O  O57  1  0.954372  0.887401  0.774014  1
  O  O58  1  0.688165  0.040093  0.884221  1
  O  O59  1  0.309787  0.986167  0.885617  1
  O  O60  1  0.296926  0.273926  0.903330  1
  O  O61  1  0.699491  0.748757  0.902245  1
  O  O62  1  0.976304  0.881913  0.993671  1
  O  O63  1  0.024706  0.138963  0.997614  1
