# generated using pymatgen
data_NiP4O11
_symmetry_space_group_name_H-M   'P 1'
_cell_length_a   9.17225382
_cell_length_b   9.20584815
_cell_length_c   10.69975862
_cell_angle_alpha   108.96845461
_cell_angle_beta   108.18002722
_cell_angle_gamma   90.91766732
_symmetry_Int_Tables_number   1
_chemical_formula_structural   NiP4O11
_chemical_formula_sum   'Ni4 P16 O44'
_cell_volume   804.79513341
_cell_formula_units_Z   4
loop_
 _symmetry_equiv_pos_site_id
 _symmetry_equiv_pos_as_xyz
  1  'x, y, z'
loop_
 _atom_site_type_symbol
 _atom_site_label
 _atom_site_symmetry_multiplicity
 _atom_site_fract_x
 _atom_site_fract_y
 _atom_site_fract_z
 _atom_site_occupancy
  Ni  Ni0  1  0.755364  0.781718  0.018217  1
  Ni  Ni1  1  0.269683  0.728591  0.495963  1
  Ni  Ni2  1  0.730317  0.271409  0.504037  1
  Ni  Ni3  1  0.244636  0.218282  0.981783  1
  P  P4  1  0.941049  0.592133  0.227704  1
  P  P5  1  0.762035  0.917386  0.555714  1
  P  P6  1  0.934713  0.250409  0.073046  1
  P  P7  1  0.409079  0.773244  0.086429  1
  P  P8  1  0.739689  0.572815  0.390544  1
  P  P9  1  0.590148  0.900743  0.756840  1
  P  P10  1  0.912831  0.108504  0.285299  1
  P  P11  1  0.408314  0.550264  0.245176  1
  P  P12  1  0.591686  0.449736  0.754824  1
  P  P13  1  0.087169  0.891496  0.714701  1
  P  P14  1  0.409852  0.099257  0.243160  1
  P  P15  1  0.260311  0.427185  0.609456  1
  P  P16  1  0.590921  0.226756  0.913571  1
  P  P17  1  0.065287  0.749591  0.926954  1
  P  P18  1  0.237965  0.082614  0.444286  1
  P  P19  1  0.058951  0.407867  0.772296  1
  O  O20  1  0.997359  0.821731  0.036884  1
  O  O21  1  0.790084  0.979921  0.187076  1
  O  O22  1  0.936224  0.970104  0.651442  1
  O  O23  1  0.812425  0.647123  0.137923  1
  O  O24  1  0.979153  0.430464  0.131306  1
  O  O25  1  0.530667  0.760767  0.023066  1
  O  O26  1  0.760371  0.758426  0.435621  1
  O  O27  1  0.432556  0.916524  0.224507  1
  O  O28  1  0.871719  0.525289  0.325810  1
  O  O29  1  0.678410  0.863160  0.642064  1
  O  O30  1  0.987596  0.194656  0.202116  1
  O  O31  1  0.750827  0.224161  0.028019  1
  O  O32  1  0.701967  0.908483  0.893735  1
  O  O33  1  0.587629  0.519471  0.256977  1
  O  O34  1  0.371351  0.631395  0.125609  1
  O  O35  1  0.303588  0.964551  0.502315  1
  O  O36  1  0.746114  0.511019  0.502732  1
  O  O37  1  0.888799  0.233341  0.403537  1
  O  O38  1  0.416291  0.664983  0.383194  1
  O  O39  1  0.440069  0.798831  0.688165  1
  O  O40  1  0.907620  0.311319  0.686775  1
  O  O41  1  0.695401  0.598741  0.825074  1
  O  O42  1  0.304599  0.401259  0.174926  1
  O  O43  1  0.092380  0.688681  0.313225  1
  O  O44  1  0.559931  0.201169  0.311835  1
  O  O45  1  0.583709  0.335017  0.616806  1
  O  O46  1  0.111201  0.766659  0.596463  1
  O  O47  1  0.253886  0.488981  0.497268  1
  O  O48  1  0.696412  0.035449  0.497685  1
  O  O49  1  0.628649  0.368605  0.874391  1
  O  O50  1  0.412371  0.480529  0.743023  1
  O  O51  1  0.298033  0.091517  0.106265  1
  O  O52  1  0.249173  0.775839  0.971981  1
  O  O53  1  0.012404  0.805344  0.797884  1
  O  O54  1  0.321590  0.136840  0.357936  1
  O  O55  1  0.128281  0.474711  0.674190  1
  O  O56  1  0.567444  0.083476  0.775493  1
  O  O57  1  0.239629  0.241574  0.564379  1
  O  O58  1  0.469333  0.239233  0.976934  1
  O  O59  1  0.020847  0.569536  0.868694  1
  O  O60  1  0.187575  0.352877  0.862077  1
  O  O61  1  0.063776  0.029896  0.348558  1
  O  O62  1  0.209916  0.020079  0.812924  1
  O  O63  1  0.002641  0.178269  0.963116  1
