# generated using pymatgen
data_Li4Mn3Fe(BO3)4
_symmetry_space_group_name_H-M   'P 1'
_cell_length_a   5.24650923
_cell_length_b   5.24967041
_cell_length_c   20.95165765
_cell_angle_alpha   90.85566737
_cell_angle_beta   90.77882588
_cell_angle_gamma   119.79757724
_symmetry_Int_Tables_number   1
_chemical_formula_structural   Li4Mn3Fe(BO3)4
_chemical_formula_sum   'Li8 Mn6 Fe2 B8 O24'
_cell_volume   500.56204005
_cell_formula_units_Z   2
loop_
 _symmetry_equiv_pos_site_id
 _symmetry_equiv_pos_as_xyz
  1  'x, y, z'
loop_
 _atom_site_type_symbol
 _atom_site_label
 _atom_site_symmetry_multiplicity
 _atom_site_fract_x
 _atom_site_fract_y
 _atom_site_fract_z
 _atom_site_occupancy
  Li  Li0  1  0.678165  0.652042  0.334034  1
  Li  Li1  1  0.652483  0.678632  0.084258  1
  Li  Li2  1  0.679056  0.651400  0.834137  1
  Li  Li3  1  0.650821  0.679079  0.583920  1
  Li  Li4  1  0.346829  0.337863  0.208250  1
  Li  Li5  1  0.338027  0.348442  0.458486  1
  Li  Li6  1  0.348141  0.338074  0.708855  1
  Li  Li7  1  0.337858  0.346378  0.958611  1
  Mn  Mn8  1  0.675464  0.006577  0.440879  1
  Mn  Mn9  1  0.668824  0.003626  0.942783  1
  Mn  Mn10  1  0.322693  0.002969  0.566078  1
  Mn  Mn11  1  0.003241  0.322823  0.816876  1
  Mn  Mn12  1  0.007168  0.673144  0.192052  1
  Mn  Mn13  1  0.003089  0.670697  0.691639  1
  Fe  Fe14  1  0.316269  0.003293  0.066520  1
  Fe  Fe15  1  0.004098  0.317723  0.316045  1
  B  B16  1  0.997330  0.338780  0.063220  1
  B  B17  1  0.997419  0.341816  0.562787  1
  B  B18  1  0.666074  0.005031  0.187618  1
  B  B19  1  0.665072  0.004471  0.687902  1
  B  B20  1  0.338472  0.997153  0.313016  1
  B  B21  1  0.341872  0.997394  0.813047  1
  B  B22  1  0.006003  0.665758  0.436949  1
  B  B23  1  0.003231  0.665191  0.938589  1
  O  O24  1  0.928814  0.248034  0.208981  1
  O  O25  1  0.929200  0.247079  0.708984  1
  O  O26  1  0.741232  0.071226  0.049666  1
  O  O27  1  0.979915  0.585069  0.081957  1
  O  O28  1  0.746969  0.070685  0.547752  1
  O  O29  1  0.967070  0.579131  0.583366  1
  O  O30  1  0.422401  0.037108  0.172203  1
  O  O31  1  0.731914  0.642164  0.430020  1
  O  O32  1  0.421733  0.037344  0.672602  1
  O  O33  1  0.729797  0.641841  0.931136  1
  O  O34  1  0.643244  0.731587  0.180589  1
  O  O35  1  0.641162  0.731212  0.680639  1
  O  O36  1  0.359320  0.270193  0.306052  1
  O  O37  1  0.371027  0.272247  0.805727  1
  O  O38  1  0.271044  0.359454  0.056431  1
  O  O39  1  0.585536  0.979845  0.331800  1
  O  O40  1  0.272705  0.371023  0.555287  1
  O  O41  1  0.579334  0.967157  0.833766  1
  O  O42  1  0.038343  0.422742  0.421572  1
  O  O43  1  0.036173  0.421758  0.923428  1
  O  O44  1  0.249022  0.929244  0.458234  1
  O  O45  1  0.245549  0.928813  0.959595  1
  O  O46  1  0.071300  0.741381  0.299327  1
  O  O47  1  0.070693  0.746506  0.798137  1
