# generated using pymatgen
data_LiMnSnO4
_symmetry_space_group_name_H-M   'P 1'
_cell_length_a   6.27072914
_cell_length_b   6.27072914
_cell_length_c   6.27072914
_cell_angle_alpha   123.65307846
_cell_angle_beta   120.45476835
_cell_angle_gamma   86.50158521
_symmetry_Int_Tables_number   1
_chemical_formula_structural   LiMnSnO4
_chemical_formula_sum   'Li2 Mn2 Sn2 O8'
_cell_volume   168.42446842
_cell_formula_units_Z   2
loop_
 _symmetry_equiv_pos_site_id
 _symmetry_equiv_pos_as_xyz
  1  'x, y, z'
loop_
 _atom_site_type_symbol
 _atom_site_label
 _atom_site_symmetry_multiplicity
 _atom_site_fract_x
 _atom_site_fract_y
 _atom_site_fract_z
 _atom_site_occupancy
  Li  Li0  1  0.879947  0.629947  0.250000  1
  Li  Li1  1  0.120053  0.370053  0.750000  1
  Mn  Mn2  1  0.500000  0.000000  0.000000  1
  Mn  Mn3  1  0.500000  0.500000  0.500000  1
  Sn  Sn4  1  0.500000  0.000000  0.500000  1
  Sn  Sn5  1  0.000000  0.000000  0.000000  1
  O  O6  1  0.749672  0.233545  0.983873  1
  O  O7  1  0.302916  0.765999  0.536917  1
  O  O8  1  0.729082  0.765999  0.963083  1
  O  O9  1  0.749672  0.765799  0.516127  1
  O  O10  1  0.250328  0.234201  0.483873  1
  O  O11  1  0.697084  0.234001  0.463083  1
  O  O12  1  0.270918  0.234001  0.036917  1
  O  O13  1  0.250328  0.766455  0.016127  1
