# generated using pymatgen
data_Li2VP2HO8
_symmetry_space_group_name_H-M   'P 1'
_cell_length_a   4.85357216
_cell_length_b   8.27820688
_cell_length_c   8.56928956
_cell_angle_alpha   76.42709593
_cell_angle_beta   78.32030497
_cell_angle_gamma   73.03544536
_symmetry_Int_Tables_number   1
_chemical_formula_structural   Li2VP2HO8
_chemical_formula_sum   'Li4 V2 P4 H2 O16'
_cell_volume   316.78456168
_cell_formula_units_Z   2
loop_
 _symmetry_equiv_pos_site_id
 _symmetry_equiv_pos_as_xyz
  1  'x, y, z'
loop_
 _atom_site_type_symbol
 _atom_site_label
 _atom_site_symmetry_multiplicity
 _atom_site_fract_x
 _atom_site_fract_y
 _atom_site_fract_z
 _atom_site_occupancy
  Li  Li0  1  0.893881  0.868699  0.771102  1
  Li  Li1  1  0.712933  0.624929  0.614078  1
  Li  Li2  1  0.287067  0.375071  0.385922  1
  Li  Li3  1  0.106119  0.131301  0.228898  1
  V  V4  1  0.777812  0.814178  0.211352  1
  V  V5  1  0.222188  0.185822  0.788648  1
  P  P6  1  0.382414  0.764618  0.938727  1
  P  P7  1  0.153901  0.755503  0.424061  1
  P  P8  1  0.846099  0.244497  0.575939  1
  P  P9  1  0.617586  0.235382  0.061273  1
  H  H10  1  0.556291  0.555779  0.132869  1
  H  H11  1  0.443709  0.444221  0.867131  1
  O  O12  1  0.473511  0.932308  0.861382  1
  O  O13  1  0.989651  0.923915  0.313876  1
  O  O14  1  0.051435  0.801493  0.999809  1
  O  O15  1  0.484797  0.747779  0.405453  1
  O  O16  1  0.474673  0.633164  0.828186  1
  O  O17  1  0.018383  0.742065  0.600675  1
  O  O18  1  0.558538  0.684068  0.093346  1
  O  O19  1  0.090273  0.619572  0.346185  1
  O  O20  1  0.909727  0.380428  0.653815  1
  O  O21  1  0.441462  0.315932  0.906654  1
  O  O22  1  0.981617  0.257935  0.399325  1
  O  O23  1  0.525327  0.366836  0.171814  1
  O  O24  1  0.515203  0.252221  0.594547  1
  O  O25  1  0.948565  0.198507  0.000191  1
  O  O26  1  0.010349  0.076085  0.686124  1
  O  O27  1  0.526489  0.067692  0.138618  1
