# generated using pymatgen
data_Li3V2P4(HO8)2
_symmetry_space_group_name_H-M   'P 1'
_cell_length_a   7.88494750
_cell_length_b   8.07467682
_cell_length_c   13.77166486
_cell_angle_alpha   90.24502567
_cell_angle_beta   100.04486375
_cell_angle_gamma   89.97889703
_symmetry_Int_Tables_number   1
_chemical_formula_structural   Li3V2P4(HO8)2
_chemical_formula_sum   'Li9 V6 P12 H6 O48'
_cell_volume   863.37159688
_cell_formula_units_Z   3
loop_
 _symmetry_equiv_pos_site_id
 _symmetry_equiv_pos_as_xyz
  1  'x, y, z'
loop_
 _atom_site_type_symbol
 _atom_site_label
 _atom_site_symmetry_multiplicity
 _atom_site_fract_x
 _atom_site_fract_y
 _atom_site_fract_z
 _atom_site_occupancy
  Li  Li0  1  0.976162  0.132309  0.820106  1
  Li  Li1  1  0.695383  0.866862  0.851859  1
  Li  Li2  1  0.199302  0.631156  0.848507  1
  Li  Li3  1  0.856356  0.632056  0.512898  1
  Li  Li4  1  0.635186  0.130531  0.485465  1
  Li  Li5  1  0.137670  0.364811  0.481761  1
  Li  Li6  1  0.805016  0.367293  0.148160  1
  Li  Li7  1  0.524831  0.632875  0.180757  1
  Li  Li8  1  0.300318  0.131697  0.151812  1
  V  V9  1  0.821451  0.496295  0.834063  1
  V  V10  1  0.335764  0.003713  0.831476  1
  V  V11  1  0.496647  0.502632  0.501571  1
  V  V12  1  0.011784  0.994630  0.499281  1
  V  V13  1  0.677645  0.997180  0.165845  1
  V  V14  1  0.164036  0.505109  0.168710  1
  P  P15  1  0.725516  0.151903  0.955047  1
  P  P16  1  0.214933  0.348085  0.955085  1
  P  P17  1  0.946008  0.842617  0.710438  1
  P  P18  1  0.886775  0.342798  0.622945  1
  P  P19  1  0.444513  0.649123  0.712241  1
  P  P20  1  0.389279  0.148993  0.621121  1
  P  P21  1  0.617381  0.846905  0.377736  1
  P  P22  1  0.553180  0.344011  0.289166  1
  P  P23  1  0.108817  0.651155  0.377583  1
  P  P24  1  0.055915  0.149094  0.287165  1
  P  P25  1  0.774868  0.652212  0.045024  1
  P  P26  1  0.284675  0.848067  0.044997  1
  H  H27  1  0.474042  0.489925  0.990859  1
  H  H28  1  0.676423  0.989580  0.670749  1
  H  H29  1  0.156530  0.489673  0.662467  1
  H  H30  1  0.819527  0.490291  0.327934  1
  H  H31  1  0.354943  0.988134  0.341343  1
  H  H32  1  0.025989  0.989711  0.009191  1
  O  O33  1  0.883632  0.053890  0.935891  1
  O  O34  1  0.784185  0.671637  0.932735  1
  O  O35  1  0.728276  0.327408  0.910582  1
  O  O36  1  0.567400  0.051002  0.906587  1
  O  O37  1  0.372829  0.451896  0.935616  1
  O  O38  1  0.949367  0.674875  0.764431  1
  O  O39  1  0.286800  0.827899  0.933891  1
  O  O40  1  0.881536  0.321930  0.734456  1
  O  O41  1  0.210429  0.181636  0.902382  1
  O  O42  1  0.780288  0.937882  0.728120  1
  O  O43  1  0.056419  0.454278  0.905273  1
  O  O44  1  0.612073  0.546035  0.762252  1
  O  O45  1  0.459790  0.815786  0.767242  1
  O  O46  1  0.950831  0.821744  0.598868  1
  O  O47  1  0.372833  0.166743  0.729700  1
  O  O48  1  0.280137  0.560185  0.727801  1
  O  O49  1  0.883725  0.174785  0.568975  1
  O  O50  1  0.097185  0.951291  0.759310  1
  O  O51  1  0.736050  0.451950  0.574126  1
  O  O52  1  0.553305  0.059476  0.605290  1
  O  O53  1  0.462202  0.667161  0.603888  1
  O  O54  1  0.374046  0.315273  0.566402  1
  O  O55  1  0.948122  0.553285  0.396364  1
  O  O56  1  0.220735  0.047296  0.570712  1
  O  O57  1  0.775279  0.952791  0.428079  1
  O  O58  1  0.052634  0.437772  0.605373  1
  O  O59  1  0.621629  0.679669  0.429406  1
  O  O60  1  0.552445  0.324708  0.400227  1
  O  O61  1  0.459178  0.950307  0.395765  1
  O  O62  1  0.264281  0.548162  0.429587  1
  O  O63  1  0.886842  0.048891  0.240948  1
  O  O64  1  0.104434  0.825213  0.425042  1
  O  O65  1  0.718232  0.440125  0.270101  1
  O  O66  1  0.623565  0.824897  0.266080  1
  O  O67  1  0.043575  0.170218  0.398937  1
  O  O68  1  0.549485  0.176825  0.234151  1
  O  O69  1  0.401479  0.452777  0.240615  1
  O  O70  1  0.932331  0.550130  0.093178  1
  O  O71  1  0.217592  0.059652  0.271427  1
  O  O72  1  0.772857  0.827995  0.089971  1
  O  O73  1  0.120805  0.669384  0.268159  1
  O  O74  1  0.717156  0.171199  0.067604  1
  O  O75  1  0.039965  0.317759  0.234726  1
  O  O76  1  0.616180  0.555067  0.063842  1
  O  O77  1  0.444053  0.953777  0.095010  1
  O  O78  1  0.289675  0.681874  0.097805  1
  O  O79  1  0.212270  0.327874  0.066257  1
  O  O80  1  0.126984  0.952106  0.064589  1
