# generated using pymatgen
data_Fe2P4Pb3O16
_symmetry_space_group_name_H-M   'P 1'
_cell_length_a   9.13490982
_cell_length_b   9.19385217
_cell_length_c   9.46796047
_cell_angle_alpha   90.00000000
_cell_angle_beta   116.97101185
_cell_angle_gamma   90.00000000
_symmetry_Int_Tables_number   1
_chemical_formula_structural   Fe2P4Pb3O16
_chemical_formula_sum   'Fe4 P8 Pb6 O32'
_cell_volume   708.68132288
_cell_formula_units_Z   2
loop_
 _symmetry_equiv_pos_site_id
 _symmetry_equiv_pos_as_xyz
  1  'x, y, z'
loop_
 _atom_site_type_symbol
 _atom_site_label
 _atom_site_symmetry_multiplicity
 _atom_site_fract_x
 _atom_site_fract_y
 _atom_site_fract_z
 _atom_site_occupancy
  Fe  Fe0  1  0.754047  0.366529  0.257832  1
  Fe  Fe1  1  0.245953  0.866529  0.242168  1
  Fe  Fe2  1  0.245953  0.633471  0.742168  1
  Fe  Fe3  1  0.754047  0.133471  0.757832  1
  P  P4  1  0.574083  0.088871  0.360813  1
  P  P5  1  0.020343  0.638616  0.344404  1
  P  P6  1  0.979657  0.361384  0.655596  1
  P  P7  1  0.574083  0.411129  0.860813  1
  P  P8  1  0.425917  0.911129  0.639187  1
  P  P9  1  0.425917  0.588871  0.139187  1
  P  P10  1  0.020343  0.861384  0.844404  1
  P  P11  1  0.979657  0.138616  0.155596  1
  Pb  Pb12  1  0.302189  0.206618  0.032232  1
  Pb  Pb13  1  0.697811  0.706618  0.467768  1
  Pb  Pb14  1  0.697811  0.793382  0.967768  1
  Pb  Pb15  1  0.000000  0.000000  0.500000  1
  Pb  Pb16  1  0.302189  0.293382  0.532232  1
  Pb  Pb17  1  0.000000  0.500000  0.000000  1
  O  O18  1  0.161506  0.908193  0.006035  1
  O  O19  1  0.089225  0.794150  0.734561  1
  O  O20  1  0.611529  0.951896  0.739974  1
  O  O21  1  0.089225  0.705850  0.234561  1
  O  O22  1  0.078425  0.495951  0.752340  1
  O  O23  1  0.611529  0.548104  0.239974  1
  O  O24  1  0.161506  0.591807  0.506035  1
  O  O25  1  0.078425  0.004049  0.252340  1
  O  O26  1  0.405523  0.713632  0.240736  1
  O  O27  1  0.388471  0.451896  0.760026  1
  O  O28  1  0.095434  0.248328  0.130532  1
  O  O29  1  0.838494  0.408193  0.493965  1
  O  O30  1  0.392974  0.849970  0.476402  1
  O  O31  1  0.838494  0.091807  0.993965  1
  O  O32  1  0.921575  0.504049  0.247660  1
  O  O33  1  0.607026  0.349970  0.023598  1
  O  O34  1  0.392974  0.650030  0.976402  1
  O  O35  1  0.904566  0.751672  0.869468  1
  O  O36  1  0.684971  0.957081  0.373919  1
  O  O37  1  0.594477  0.286368  0.759264  1
  O  O38  1  0.095434  0.251672  0.630532  1
  O  O39  1  0.405523  0.786368  0.740736  1
  O  O40  1  0.910775  0.294150  0.765439  1
  O  O41  1  0.904566  0.748328  0.369468  1
  O  O42  1  0.594477  0.213632  0.259264  1
  O  O43  1  0.607026  0.150030  0.523598  1
  O  O44  1  0.315029  0.457081  0.126081  1
  O  O45  1  0.315029  0.042919  0.626081  1
  O  O46  1  0.388471  0.048104  0.260026  1
  O  O47  1  0.910775  0.205850  0.265439  1
  O  O48  1  0.684971  0.542919  0.873919  1
  O  O49  1  0.921575  0.995951  0.747660  1
