# generated using pymatgen
data_Li2Cu2F7
_symmetry_space_group_name_H-M   'P 1'
_cell_length_a   5.33376561
_cell_length_b   6.44568967
_cell_length_c   8.70513165
_cell_angle_alpha   72.42241591
_cell_angle_beta   74.16912490
_cell_angle_gamma   84.70314362
_symmetry_Int_Tables_number   1
_chemical_formula_structural   Li2Cu2F7
_chemical_formula_sum   'Li4 Cu4 F14'
_cell_volume   274.46945773
_cell_formula_units_Z   2
loop_
 _symmetry_equiv_pos_site_id
 _symmetry_equiv_pos_as_xyz
  1  'x, y, z'
loop_
 _atom_site_type_symbol
 _atom_site_label
 _atom_site_symmetry_multiplicity
 _atom_site_fract_x
 _atom_site_fract_y
 _atom_site_fract_z
 _atom_site_occupancy
  Li  Li0  1  0.093151  0.411237  0.266307  1
  Li  Li1  1  0.544920  0.240875  0.358511  1
  Li  Li2  1  0.455080  0.759125  0.641489  1
  Li  Li3  1  0.906849  0.588763  0.733693  1
  Cu  Cu4  1  0.303766  0.006895  0.170855  1
  Cu  Cu5  1  0.787567  0.790005  0.303660  1
  Cu  Cu6  1  0.212433  0.209995  0.696340  1
  Cu  Cu7  1  0.696234  0.993105  0.829145  1
  F  F8  1  0.403725  0.280787  0.159770  1
  F  F9  1  0.152375  0.732142  0.200753  1
  F  F10  1  0.673762  0.908258  0.088074  1
  F  F11  1  0.934519  0.085040  0.261308  1
  F  F12  1  0.735317  0.501367  0.302492  1
  F  F13  1  0.182435  0.299072  0.470846  1
  F  F14  1  0.445287  0.888710  0.394614  1
  F  F15  1  0.554713  0.111290  0.605386  1
  F  F16  1  0.817565  0.700928  0.529154  1
  F  F17  1  0.264683  0.498633  0.697508  1
  F  F18  1  0.065481  0.914960  0.738692  1
  F  F19  1  0.326238  0.091742  0.911926  1
  F  F20  1  0.847625  0.267858  0.799247  1
  F  F21  1  0.596275  0.719213  0.840230  1
