# generated using pymatgen
data_Pd4S
_symmetry_space_group_name_H-M   'P 1'
_cell_length_a   5.19706341
_cell_length_b   5.19706341
_cell_length_c   5.66615292
_cell_angle_alpha   90.00000000
_cell_angle_beta   90.00000000
_cell_angle_gamma   90.00000000
_symmetry_Int_Tables_number   1
_chemical_formula_structural   Pd4S
_chemical_formula_sum   'Pd8 S2'
_cell_volume   153.03977647
_cell_formula_units_Z   2
loop_
 _symmetry_equiv_pos_site_id
 _symmetry_equiv_pos_as_xyz
  1  'x, y, z'
loop_
 _atom_site_type_symbol
 _atom_site_label
 _atom_site_symmetry_multiplicity
 _atom_site_fract_x
 _atom_site_fract_y
 _atom_site_fract_z
 _atom_site_occupancy
  Pd  Pd0  1  0.646818  0.767540  0.842618  1
  Pd  Pd1  1  0.732460  0.853182  0.342618  1
  Pd  Pd2  1  0.267540  0.146818  0.342618  1
  Pd  Pd3  1  0.232460  0.646818  0.157382  1
  Pd  Pd4  1  0.853182  0.267540  0.657382  1
  Pd  Pd5  1  0.146818  0.732460  0.657382  1
  Pd  Pd6  1  0.353182  0.232460  0.842618  1
  Pd  Pd7  1  0.767540  0.353182  0.157382  1
  S  S8  1  0.500000  0.500000  0.500000  1
  S  S9  1  0.000000  0.000000  0.000000  1
