# generated using pymatgen
data_LiP4WO12
_symmetry_space_group_name_H-M   'P 1'
_cell_length_a   7.86086999
_cell_length_b   7.86086999
_cell_length_c   9.70307735
_cell_angle_alpha   85.49936497
_cell_angle_beta   94.50063503
_cell_angle_gamma   55.61736109
_symmetry_Int_Tables_number   1
_chemical_formula_structural   LiP4WO12
_chemical_formula_sum   'Li2 P8 W2 O24'
_cell_volume   487.77813259
_cell_formula_units_Z   2
loop_
 _symmetry_equiv_pos_site_id
 _symmetry_equiv_pos_as_xyz
  1  'x, y, z'
loop_
 _atom_site_type_symbol
 _atom_site_label
 _atom_site_symmetry_multiplicity
 _atom_site_fract_x
 _atom_site_fract_y
 _atom_site_fract_z
 _atom_site_occupancy
  Li  Li0  1  0.960581  0.960581  0.750000  1
  Li  Li1  1  0.039419  0.039419  0.250000  1
  P  P2  1  0.296107  0.787003  0.541613  1
  P  P3  1  0.434093  0.265926  0.011680  1
  P  P4  1  0.265926  0.434093  0.488320  1
  P  P5  1  0.212997  0.703893  0.041613  1
  P  P6  1  0.787003  0.296107  0.958387  1
  P  P7  1  0.734074  0.565907  0.511680  1
  P  P8  1  0.565907  0.734074  0.988320  1
  P  P9  1  0.703893  0.212997  0.458387  1
  W  W10  1  0.182476  0.182476  0.750000  1
  W  W11  1  0.817524  0.817524  0.250000  1
  O  O12  1  0.132536  0.742861  0.891801  1
  O  O13  1  0.468123  0.919194  0.876033  1
  O  O14  1  0.186550  0.940716  0.642576  1
  O  O15  1  0.257139  0.867464  0.391801  1
  O  O16  1  0.251775  0.322777  0.906940  1
  O  O17  1  0.080806  0.531877  0.376033  1
  O  O18  1  0.612368  0.247982  0.926634  1
  O  O19  1  0.542497  0.646185  0.597994  1
  O  O20  1  0.059284  0.813450  0.142576  1
  O  O21  1  0.646185  0.542497  0.902006  1
  O  O22  1  0.247982  0.612368  0.573366  1
  O  O23  1  0.677223  0.748225  0.406940  1
  O  O24  1  0.322777  0.251775  0.593060  1
  O  O25  1  0.752018  0.387632  0.426634  1
  O  O26  1  0.353815  0.457503  0.097994  1
  O  O27  1  0.940716  0.186550  0.857424  1
  O  O28  1  0.457503  0.353815  0.402006  1
  O  O29  1  0.387632  0.752018  0.073366  1
  O  O30  1  0.919194  0.468123  0.623967  1
  O  O31  1  0.748225  0.677223  0.093060  1
  O  O32  1  0.742861  0.132536  0.608199  1
  O  O33  1  0.813450  0.059284  0.357424  1
  O  O34  1  0.531877  0.080806  0.123967  1
  O  O35  1  0.867464  0.257139  0.108199  1
