# generated using pymatgen
data_LiCoSiO4
_symmetry_space_group_name_H-M   'P 1'
_cell_length_a   4.93084489
_cell_length_b   6.86028190
_cell_length_c   9.68407095
_cell_angle_alpha   90.00000000
_cell_angle_beta   90.00000000
_cell_angle_gamma   90.00000000
_symmetry_Int_Tables_number   1
_chemical_formula_structural   LiCoSiO4
_chemical_formula_sum   'Li4 Co4 Si4 O16'
_cell_volume   327.58293243
_cell_formula_units_Z   4
loop_
 _symmetry_equiv_pos_site_id
 _symmetry_equiv_pos_as_xyz
  1  'x, y, z'
loop_
 _atom_site_type_symbol
 _atom_site_label
 _atom_site_symmetry_multiplicity
 _atom_site_fract_x
 _atom_site_fract_y
 _atom_site_fract_z
 _atom_site_occupancy
  Li  Li0  1  0.395041  0.777166  0.616139  1
  Li  Li1  1  0.604959  0.277166  0.883861  1
  Li  Li2  1  0.104959  0.222834  0.116139  1
  Li  Li3  1  0.895041  0.722834  0.383861  1
  Co  Co4  1  0.011038  0.068254  0.512246  1
  Co  Co5  1  0.988962  0.568254  0.987754  1
  Co  Co6  1  0.488962  0.931746  0.012246  1
  Co  Co7  1  0.511038  0.431746  0.487754  1
  Si  Si8  1  0.933613  0.480166  0.652320  1
  Si  Si9  1  0.066387  0.980166  0.847680  1
  Si  Si10  1  0.566387  0.519834  0.152320  1
  Si  Si11  1  0.433613  0.019834  0.347680  1
  O  O12  1  0.738921  0.636321  0.566884  1
  O  O13  1  0.800741  0.278093  0.581022  1
  O  O14  1  0.254035  0.507982  0.621821  1
  O  O15  1  0.136299  0.978040  0.683982  1
  O  O16  1  0.863701  0.478040  0.816018  1
  O  O17  1  0.745965  0.007982  0.878179  1
  O  O18  1  0.199259  0.778093  0.918978  1
  O  O19  1  0.261079  0.136321  0.933116  1
  O  O20  1  0.761079  0.363679  0.066884  1
  O  O21  1  0.699259  0.721907  0.081022  1
  O  O22  1  0.245965  0.492018  0.121821  1
  O  O23  1  0.363701  0.021960  0.183982  1
  O  O24  1  0.636299  0.521960  0.316018  1
  O  O25  1  0.754035  0.992018  0.378179  1
  O  O26  1  0.300741  0.221907  0.418978  1
  O  O27  1  0.238921  0.863679  0.433116  1
