# generated using pymatgen
data_K2SnPCO7
_symmetry_space_group_name_H-M   'P 1'
_cell_length_a   5.82614458
_cell_length_b   7.06317541
_cell_length_c   9.92127909
_cell_angle_alpha   90.00000000
_cell_angle_beta   93.46513136
_cell_angle_gamma   90.00000000
_symmetry_Int_Tables_number   1
_chemical_formula_structural   K2SnPCO7
_chemical_formula_sum   'K4 Sn2 P2 C2 O14'
_cell_volume   407.52494516
_cell_formula_units_Z   2
loop_
 _symmetry_equiv_pos_site_id
 _symmetry_equiv_pos_as_xyz
  1  'x, y, z'
loop_
 _atom_site_type_symbol
 _atom_site_label
 _atom_site_symmetry_multiplicity
 _atom_site_fract_x
 _atom_site_fract_y
 _atom_site_fract_z
 _atom_site_occupancy
  K  K0  1  0.246889  0.014353  0.228470  1
  K  K1  1  0.246889  0.485647  0.228470  1
  K  K2  1  0.753111  0.514353  0.771530  1
  K  K3  1  0.753111  0.985647  0.771530  1
  Sn  Sn4  1  0.781094  0.750000  0.368381  1
  Sn  Sn5  1  0.218906  0.250000  0.631619  1
  P  P6  1  0.716690  0.250000  0.424357  1
  P  P7  1  0.283310  0.750000  0.575643  1
  C  C8  1  0.725384  0.750000  0.095551  1
  C  C9  1  0.274616  0.250000  0.904449  1
  O  O10  1  0.289799  0.250000  0.030694  1
  O  O11  1  0.926645  0.750000  0.166655  1
  O  O12  1  0.545077  0.750000  0.170754  1
  O  O13  1  0.787430  0.071642  0.343203  1
  O  O14  1  0.787430  0.428358  0.343203  1
  O  O15  1  0.158622  0.750000  0.430900  1
  O  O16  1  0.451191  0.250000  0.439129  1
  O  O17  1  0.548809  0.750000  0.560871  1
  O  O18  1  0.841378  0.250000  0.569100  1
  O  O19  1  0.212570  0.571642  0.656797  1
  O  O20  1  0.212570  0.928358  0.656797  1
  O  O21  1  0.454923  0.250000  0.829246  1
  O  O22  1  0.073355  0.250000  0.833345  1
  O  O23  1  0.710201  0.750000  0.969306  1
