# generated using pymatgen
data_LuGaO3
_symmetry_space_group_name_H-M   'P 1'
_cell_length_a   5.20806196
_cell_length_b   5.53821339
_cell_length_c   7.58419425
_cell_angle_alpha   90.00000000
_cell_angle_beta   90.00000000
_cell_angle_gamma   90.00000000
_symmetry_Int_Tables_number   1
_chemical_formula_structural   LuGaO3
_chemical_formula_sum   'Lu4 Ga4 O12'
_cell_volume   218.75363356
_cell_formula_units_Z   4
loop_
 _symmetry_equiv_pos_site_id
 _symmetry_equiv_pos_as_xyz
  1  'x, y, z'
loop_
 _atom_site_type_symbol
 _atom_site_label
 _atom_site_symmetry_multiplicity
 _atom_site_fract_x
 _atom_site_fract_y
 _atom_site_fract_z
 _atom_site_occupancy
  Lu  Lu0  1  0.022093  0.571603  0.750000  1
  Lu  Lu1  1  0.477907  0.071603  0.750000  1
  Lu  Lu2  1  0.522093  0.928397  0.250000  1
  Lu  Lu3  1  0.977907  0.428397  0.250000  1
  Ga  Ga4  1  0.000000  0.000000  0.500000  1
  Ga  Ga5  1  0.500000  0.500000  0.500000  1
  Ga  Ga6  1  0.500000  0.500000  0.000000  1
  Ga  Ga7  1  0.000000  0.000000  0.000000  1
  O  O8  1  0.124517  0.048782  0.250000  1
  O  O9  1  0.190315  0.306709  0.563346  1
  O  O10  1  0.190315  0.306709  0.936654  1
  O  O11  1  0.309685  0.806709  0.936654  1
  O  O12  1  0.309685  0.806709  0.563346  1
  O  O13  1  0.375483  0.548782  0.250000  1
  O  O14  1  0.624517  0.451218  0.750000  1
  O  O15  1  0.690315  0.193291  0.063346  1
  O  O16  1  0.690315  0.193291  0.436654  1
  O  O17  1  0.809685  0.693291  0.436654  1
  O  O18  1  0.809685  0.693291  0.063346  1
  O  O19  1  0.875483  0.951218  0.750000  1
