# generated using pymatgen
data_Cr2PO5
_symmetry_space_group_name_H-M   'P 1'
_cell_length_a   5.54283293
_cell_length_b   5.54283293
_cell_length_c   7.14942923
_cell_angle_alpha   69.09202638
_cell_angle_beta   110.90797362
_cell_angle_gamma   86.51502163
_symmetry_Int_Tables_number   1
_chemical_formula_structural   Cr2PO5
_chemical_formula_sum   'Cr4 P2 O10'
_cell_volume   187.17027656
_cell_formula_units_Z   2
loop_
 _symmetry_equiv_pos_site_id
 _symmetry_equiv_pos_as_xyz
  1  'x, y, z'
loop_
 _atom_site_type_symbol
 _atom_site_label
 _atom_site_symmetry_multiplicity
 _atom_site_fract_x
 _atom_site_fract_y
 _atom_site_fract_z
 _atom_site_occupancy
  Cr  Cr0  1  0.500000  0.500000  0.500000  1
  Cr  Cr1  1  1.000000  0.500000  0.500000  1
  Cr  Cr2  1  0.500000  0.000000  0.000000  1
  Cr  Cr3  1  0.500000  0.500000  0.000000  1
  P  P4  1  0.892319  0.892319  0.750000  1
  P  P5  1  0.107681  0.107681  0.250000  1
  O  O6  1  0.194187  0.822666  0.897967  1
  O  O7  1  0.822666  0.194187  0.602033  1
  O  O8  1  0.709177  0.845045  0.872652  1
  O  O9  1  0.845045  0.709177  0.627348  1
  O  O10  1  0.638596  0.638596  0.250000  1
  O  O11  1  0.361404  0.361404  0.750000  1
  O  O12  1  0.154955  0.290823  0.372652  1
  O  O13  1  0.290823  0.154955  0.127348  1
  O  O14  1  0.177334  0.805813  0.397967  1
  O  O15  1  0.805813  0.177334  0.102033  1
