# generated using pymatgen
data_Li5NiO4
_symmetry_space_group_name_H-M   'P 1'
_cell_length_a   9.07108691
_cell_length_b   9.15284645
_cell_length_c   9.18443855
_cell_angle_alpha   90.00000000
_cell_angle_beta   90.00000000
_cell_angle_gamma   90.00000000
_symmetry_Int_Tables_number   1
_chemical_formula_structural   Li5NiO4
_chemical_formula_sum   'Li40 Ni8 O32'
_cell_volume   762.54963464
_cell_formula_units_Z   8
loop_
 _symmetry_equiv_pos_site_id
 _symmetry_equiv_pos_as_xyz
  1  'x, y, z'
loop_
 _atom_site_type_symbol
 _atom_site_label
 _atom_site_symmetry_multiplicity
 _atom_site_fract_x
 _atom_site_fract_y
 _atom_site_fract_z
 _atom_site_occupancy
  Li  Li0  1  0.856513  0.388056  0.109253  1
  Li  Li1  1  0.356513  0.111944  0.109253  1
  Li  Li2  1  0.159558  0.890053  0.117951  1
  Li  Li3  1  0.659558  0.609947  0.117951  1
  Li  Li4  1  0.626154  0.148231  0.118945  1
  Li  Li5  1  0.126154  0.351769  0.118945  1
  Li  Li6  1  0.896336  0.123472  0.147301  1
  Li  Li7  1  0.396336  0.376528  0.147301  1
  Li  Li8  1  0.605328  0.881095  0.156041  1
  Li  Li9  1  0.105328  0.618905  0.156041  1
  Li  Li10  1  0.105328  0.118905  0.343959  1
  Li  Li11  1  0.605328  0.381095  0.343959  1
  Li  Li12  1  0.896336  0.623472  0.352699  1
  Li  Li13  1  0.396336  0.876528  0.352699  1
  Li  Li14  1  0.626154  0.648231  0.381055  1
  Li  Li15  1  0.126154  0.851769  0.381055  1
  Li  Li16  1  0.659558  0.109947  0.382049  1
  Li  Li17  1  0.159558  0.390053  0.382049  1
  Li  Li18  1  0.856513  0.888056  0.390747  1
  Li  Li19  1  0.356513  0.611944  0.390747  1
  Li  Li20  1  0.643487  0.388056  0.609253  1
  Li  Li21  1  0.143487  0.111944  0.609253  1
  Li  Li22  1  0.340442  0.890053  0.617951  1
  Li  Li23  1  0.840442  0.609947  0.617951  1
  Li  Li24  1  0.373846  0.351769  0.618945  1
  Li  Li25  1  0.873846  0.148231  0.618945  1
  Li  Li26  1  0.103664  0.376528  0.647301  1
  Li  Li27  1  0.603664  0.123472  0.647301  1
  Li  Li28  1  0.894672  0.881095  0.656041  1
  Li  Li29  1  0.394672  0.618905  0.656041  1
  Li  Li30  1  0.894672  0.381095  0.843959  1
  Li  Li31  1  0.394672  0.118905  0.843959  1
  Li  Li32  1  0.603664  0.623472  0.852699  1
  Li  Li33  1  0.103664  0.876528  0.852699  1
  Li  Li34  1  0.373846  0.851769  0.881055  1
  Li  Li35  1  0.873846  0.648231  0.881055  1
  Li  Li36  1  0.340442  0.390053  0.882049  1
  Li  Li37  1  0.840442  0.109947  0.882049  1
  Li  Li38  1  0.643487  0.888056  0.890747  1
  Li  Li39  1  0.143487  0.611944  0.890747  1
  Ni  Ni40  1  0.881892  0.853414  0.117268  1
  Ni  Ni41  1  0.381892  0.646586  0.117268  1
  Ni  Ni42  1  0.881892  0.353414  0.382732  1
  Ni  Ni43  1  0.381892  0.146586  0.382732  1
  Ni  Ni44  1  0.618108  0.853414  0.617268  1
  Ni  Ni45  1  0.118108  0.646586  0.617268  1
  Ni  Ni46  1  0.618108  0.353414  0.882732  1
  Ni  Ni47  1  0.118108  0.146586  0.882732  1
  O  O48  1  0.514450  0.748378  0.006186  1
  O  O49  1  0.014450  0.751622  0.006186  1
  O  O50  1  0.755549  0.992151  0.035320  1
  O  O51  1  0.255549  0.507849  0.035320  1
  O  O52  1  0.999307  0.965821  0.245375  1
  O  O53  1  0.499307  0.534179  0.245375  1
  O  O54  1  0.761035  0.752116  0.245923  1
  O  O55  1  0.261035  0.747884  0.245923  1
  O  O56  1  0.761035  0.252116  0.254077  1
  O  O57  1  0.261035  0.247884  0.254077  1
  O  O58  1  0.999307  0.465821  0.254625  1
  O  O59  1  0.499307  0.034179  0.254625  1
  O  O60  1  0.755549  0.492151  0.464680  1
  O  O61  1  0.255549  0.007849  0.464680  1
  O  O62  1  0.514450  0.248378  0.493814  1
  O  O63  1  0.014450  0.251622  0.493814  1
  O  O64  1  0.985550  0.748378  0.506186  1
  O  O65  1  0.485550  0.751622  0.506186  1
  O  O66  1  0.744451  0.992151  0.535320  1
  O  O67  1  0.244451  0.507849  0.535320  1
  O  O68  1  0.500693  0.965821  0.745375  1
  O  O69  1  0.000693  0.534179  0.745375  1
  O  O70  1  0.738965  0.752116  0.745923  1
  O  O71  1  0.238965  0.747884  0.745923  1
  O  O72  1  0.738965  0.252116  0.754077  1
  O  O73  1  0.238965  0.247884  0.754077  1
  O  O74  1  0.500693  0.465821  0.754625  1
  O  O75  1  0.000693  0.034179  0.754625  1
  O  O76  1  0.244451  0.007849  0.964680  1
  O  O77  1  0.744451  0.492151  0.964680  1
  O  O78  1  0.985550  0.248378  0.993814  1
  O  O79  1  0.485550  0.251622  0.993814  1
