# generated using pymatgen
data_LiCr4O12
_symmetry_space_group_name_H-M   'P 1'
_cell_length_a   15.63254428
_cell_length_b   15.63254428
_cell_length_c   15.63254428
_cell_angle_alpha   148.27502668
_cell_angle_beta   148.27502668
_cell_angle_gamma   45.47953447
_symmetry_Int_Tables_number   1
_chemical_formula_structural   LiCr4O12
_chemical_formula_sum   'Li4 Cr16 O48'
_cell_volume   1052.88279570
_cell_formula_units_Z   4
loop_
 _symmetry_equiv_pos_site_id
 _symmetry_equiv_pos_as_xyz
  1  'x, y, z'
loop_
 _atom_site_type_symbol
 _atom_site_label
 _atom_site_symmetry_multiplicity
 _atom_site_fract_x
 _atom_site_fract_y
 _atom_site_fract_z
 _atom_site_occupancy
  Li  Li0  1  0.000000  0.500000  0.500000  1
  Li  Li1  1  0.250000  0.250000  0.000000  1
  Li  Li2  1  0.500000  0.000000  0.500000  1
  Li  Li3  1  0.750000  0.750000  0.000000  1
  Cr  Cr4  1  0.969492  0.183271  0.503830  1
  Cr  Cr5  1  0.933271  0.929440  0.713779  1
  Cr  Cr6  1  0.034338  0.820560  0.503830  1
  Cr  Cr7  1  0.179440  0.683271  0.213779  1
  Cr  Cr8  1  0.070560  0.784338  0.003830  1
  Cr  Cr9  1  0.469492  0.965662  0.786221  1
  Cr  Cr10  1  0.316729  0.530508  0.496170  1
  Cr  Cr11  1  0.215662  0.219492  0.286221  1
  Cr  Cr12  1  0.534338  0.030508  0.213779  1
  Cr  Cr13  1  0.433271  0.719492  0.003830  1
  Cr  Cr14  1  0.280508  0.284338  0.713779  1
  Cr  Cr15  1  0.679440  0.465662  0.496170  1
  Cr  Cr16  1  0.570560  0.566729  0.286221  1
  Cr  Cr17  1  0.715662  0.429440  0.996170  1
  Cr  Cr18  1  0.816729  0.320560  0.786221  1
  Cr  Cr19  1  0.780508  0.066729  0.996170  1
  O  O20  1  0.894062  0.756234  0.260338  1
  O  O21  1  0.022883  0.715470  0.167013  1
  O  O22  1  0.125000  0.187327  0.562327  1
  O  O23  1  0.048457  0.215470  0.692587  1
  O  O24  1  0.995896  0.256234  0.862172  1
  O  O25  1  0.937327  0.875000  0.562327  1
  O  O26  1  0.144130  0.977117  0.692587  1
  O  O27  1  0.965470  0.772883  0.667013  1
  O  O28  1  0.243766  0.504104  0.137828  1
  O  O29  1  0.883725  0.245896  0.239662  1
  O  O30  1  0.162790  0.662790  0.500000  1
  O  O31  1  0.912790  0.912790  0.000000  1
  O  O32  1  0.087210  0.087210  0.000000  1
  O  O33  1  0.337210  0.837210  0.500000  1
  O  O34  1  0.006234  0.644062  0.760338  1
  O  O35  1  0.366275  0.105938  0.862172  1
  O  O36  1  0.105870  0.298457  0.332987  1
  O  O37  1  0.284530  0.451543  0.307413  1
  O  O38  1  0.312673  0.375000  0.437673  1
  O  O39  1  0.394062  0.133725  0.137828  1
  O  O40  1  0.254104  0.616275  0.760338  1
  O  O41  1  0.522883  0.355870  0.307413  1
  O  O42  1  0.201543  0.394130  0.667013  1
  O  O43  1  0.625000  0.562673  0.437673  1
  O  O44  1  0.125000  0.687327  0.062327  1
  O  O45  1  0.548457  0.855870  0.832987  1
  O  O46  1  0.227117  0.894130  0.192587  1
  O  O47  1  0.495896  0.633725  0.739662  1
  O  O48  1  0.355938  0.116275  0.362172  1
  O  O49  1  0.437327  0.875000  0.062327  1
  O  O50  1  0.465470  0.798457  0.192587  1
  O  O51  1  0.644130  0.951543  0.167013  1
  O  O52  1  0.383725  0.144062  0.637828  1
  O  O53  1  0.743766  0.605938  0.739662  1
  O  O54  1  0.412790  0.412790  0.000000  1
  O  O55  1  0.587210  0.587210  0.000000  1
  O  O56  1  0.837210  0.337210  0.500000  1
  O  O57  1  0.662790  0.162790  0.500000  1
  O  O58  1  0.866275  0.004104  0.260338  1
  O  O59  1  0.506234  0.745896  0.362172  1
  O  O60  1  0.784530  0.477117  0.832987  1
  O  O61  1  0.605870  0.272883  0.807413  1
  O  O62  1  0.812673  0.375000  0.937673  1
  O  O63  1  0.754104  0.993766  0.637828  1
  O  O64  1  0.701543  0.034530  0.807413  1
  O  O65  1  0.625000  0.062673  0.937673  1
  O  O66  1  0.727117  0.534530  0.332987  1
  O  O67  1  0.855938  0.493766  0.239662  1
