# generated using pymatgen
data_Zr2N2O
_symmetry_space_group_name_H-M   'P 1'
_cell_length_a   5.57630462
_cell_length_b   5.57630462
_cell_length_c   14.79864755
_cell_angle_alpha   89.94694966
_cell_angle_beta   90.05305034
_cell_angle_gamma   120.19152551
_symmetry_Int_Tables_number   1
_chemical_formula_structural   Zr2N2O
_chemical_formula_sum   'Zr12 N12 O6'
_cell_volume   397.74432450
_cell_formula_units_Z   6
loop_
 _symmetry_equiv_pos_site_id
 _symmetry_equiv_pos_as_xyz
  1  'x, y, z'
loop_
 _atom_site_type_symbol
 _atom_site_label
 _atom_site_symmetry_multiplicity
 _atom_site_fract_x
 _atom_site_fract_y
 _atom_site_fract_z
 _atom_site_occupancy
  Zr  Zr0  1  0.997765  0.000778  0.358356  1
  Zr  Zr1  1  0.999222  0.002235  0.858356  1
  Zr  Zr2  1  0.678170  0.323721  0.191103  1
  Zr  Zr3  1  0.678543  0.326219  0.474809  1
  Zr  Zr4  1  0.676279  0.321830  0.691103  1
  Zr  Zr5  1  0.673781  0.321457  0.974809  1
  Zr  Zr6  1  0.326219  0.678543  0.025191  1
  Zr  Zr7  1  0.323721  0.678170  0.308897  1
  Zr  Zr8  1  0.321457  0.673781  0.525191  1
  Zr  Zr9  1  0.321830  0.676279  0.808897  1
  Zr  Zr10  1  0.000778  0.997765  0.141644  1
  Zr  Zr11  1  0.002235  0.999222  0.641644  1
  N  N12  1  0.005827  0.710081  0.248392  1
  N  N13  1  0.289919  0.994173  0.748392  1
  N  N14  1  0.368547  0.044336  0.082182  1
  N  N15  1  0.955664  0.631453  0.582182  1
  N  N16  1  0.339224  0.965212  0.415364  1
  N  N17  1  0.034788  0.660776  0.915364  1
  N  N18  1  0.965212  0.339224  0.084636  1
  N  N19  1  0.660776  0.034788  0.584636  1
  N  N20  1  0.044336  0.368547  0.417818  1
  N  N21  1  0.631453  0.955664  0.917818  1
  N  N22  1  0.710081  0.005827  0.251608  1
  N  N23  1  0.994173  0.289919  0.751608  1
  O  O24  1  0.666608  0.643538  0.082177  1
  O  O25  1  0.356462  0.333392  0.582177  1
  O  O26  1  0.643538  0.666608  0.417823  1
  O  O27  1  0.333392  0.356462  0.917823  1
  O  O28  1  0.310653  0.310653  0.250000  1
  O  O29  1  0.689347  0.689347  0.750000  1
