# generated using pymatgen
data_PbWO4
_symmetry_space_group_name_H-M   'P 1'
_cell_length_a   5.55795391
_cell_length_b   5.58789955
_cell_length_c   7.27813126
_cell_angle_alpha   112.00307849
_cell_angle_beta   112.42661250
_cell_angle_gamma   90.36399293
_symmetry_Int_Tables_number   1
_chemical_formula_structural   PbWO4
_chemical_formula_sum   'Pb2 W2 O8'
_cell_volume   190.76328804
_cell_formula_units_Z   2
loop_
 _symmetry_equiv_pos_site_id
 _symmetry_equiv_pos_as_xyz
  1  'x, y, z'
loop_
 _atom_site_type_symbol
 _atom_site_label
 _atom_site_symmetry_multiplicity
 _atom_site_fract_x
 _atom_site_fract_y
 _atom_site_fract_z
 _atom_site_occupancy
  Pb  Pb0  1  0.627793  0.876270  0.248966  1
  Pb  Pb1  1  0.369187  0.126523  0.753758  1
  W  W2  1  0.123715  0.376533  0.248394  1
  W  W3  1  0.879217  0.617108  0.747374  1
  O  O4  1  0.267842  0.426676  0.075085  1
  O  O5  1  0.081348  0.695103  0.417278  1
  O  O6  1  0.661523  0.761712  0.574189  1
  O  O7  1  0.718034  0.578231  0.913460  1
  O  O8  1  0.339330  0.213763  0.406460  1
  O  O9  1  0.195804  0.842914  0.909504  1
  O  O10  1  0.797304  0.168142  0.092923  1
  O  O11  1  0.932689  0.295689  0.591129  1
