# generated using pymatgen
data_TlAsO4
_symmetry_space_group_name_H-M   'P 1'
_cell_length_a   6.89777087
_cell_length_b   6.89777087
_cell_length_c   6.89777087
_cell_angle_alpha   137.54173954
_cell_angle_beta   137.54173954
_cell_angle_gamma   61.60557554
_symmetry_Int_Tables_number   1
_chemical_formula_structural   TlAsO4
_chemical_formula_sum   'Tl2 As2 O8'
_cell_volume   147.84277543
_cell_formula_units_Z   2
loop_
 _symmetry_equiv_pos_site_id
 _symmetry_equiv_pos_as_xyz
  1  'x, y, z'
loop_
 _atom_site_type_symbol
 _atom_site_label
 _atom_site_symmetry_multiplicity
 _atom_site_fract_x
 _atom_site_fract_y
 _atom_site_fract_z
 _atom_site_occupancy
  Tl  Tl0  1  0.750000  0.250000  0.500000  1
  Tl  Tl1  1  0.000000  0.000000  0.000000  1
  As  As2  1  0.250000  0.750000  0.500000  1
  As  As3  1  0.500000  0.500000  0.000000  1
  O  O4  1  0.328592  0.922996  0.906774  1
  O  O5  1  0.733778  0.828183  0.406774  1
  O  O6  1  0.171817  0.578592  0.905596  1
  O  O7  1  0.077004  0.983778  0.405596  1
  O  O8  1  0.578183  0.671408  0.594404  1
  O  O9  1  0.672996  0.266222  0.094404  1
  O  O10  1  0.421408  0.327004  0.593226  1
  O  O11  1  0.016222  0.421817  0.093226  1
