# generated using pymatgen
data_Li8Fe(O2F)2
_symmetry_space_group_name_H-M   'P 1'
_cell_length_a   5.44928602
_cell_length_b   5.59154019
_cell_length_c   11.00422944
_cell_angle_alpha   101.61277427
_cell_angle_beta   84.81057213
_cell_angle_gamma   117.40168332
_symmetry_Int_Tables_number   1
_chemical_formula_structural   Li8Fe(O2F)2
_chemical_formula_sum   'Li16 Fe2 O8 F4'
_cell_volume   291.58372477
_cell_formula_units_Z   2
loop_
 _symmetry_equiv_pos_site_id
 _symmetry_equiv_pos_as_xyz
  1  'x, y, z'
loop_
 _atom_site_type_symbol
 _atom_site_label
 _atom_site_symmetry_multiplicity
 _atom_site_fract_x
 _atom_site_fract_y
 _atom_site_fract_z
 _atom_site_occupancy
  Li  Li0  1  0.714900  0.564244  0.815445  1
  Li  Li1  1  0.436822  0.664814  0.966444  1
  Li  Li2  1  0.368704  0.196118  0.685624  1
  Li  Li3  1  0.085267  0.588884  0.664796  1
  Li  Li4  1  0.574087  0.034293  0.175394  1
  Li  Li5  1  0.263113  0.131545  0.310604  1
  Li  Li6  1  0.042204  0.274074  0.831528  1
  Li  Li7  1  0.282041  0.834332  0.453428  1
  Li  Li8  1  0.717959  0.165668  0.546572  1
  Li  Li9  1  0.957796  0.725926  0.168472  1
  Li  Li10  1  0.736887  0.868455  0.689396  1
  Li  Li11  1  0.631296  0.803882  0.314376  1
  Li  Li12  1  0.425913  0.965707  0.824606  1
  Li  Li13  1  0.914733  0.411116  0.335204  1
  Li  Li14  1  0.563178  0.335186  0.033556  1
  Li  Li15  1  0.285100  0.435756  0.184555  1
  Fe  Fe16  1  0.000000  0.000000  0.000000  1
  Fe  Fe17  1  0.500000  0.500000  0.500000  1
  O  O18  1  0.708556  0.505274  0.635154  1
  O  O19  1  0.578483  0.137849  0.380626  1
  O  O20  1  0.378307  0.287186  0.877727  1
  O  O21  1  0.262664  0.063817  0.128296  1
  O  O22  1  0.737336  0.936183  0.871704  1
  O  O23  1  0.621693  0.712814  0.122273  1
  O  O24  1  0.421517  0.862151  0.619374  1
  O  O25  1  0.291444  0.494726  0.364846  1
  F  F26  1  0.092974  0.640213  0.859022  1
  F  F27  1  0.037433  0.211492  0.648372  1
  F  F28  1  0.962567  0.788508  0.351628  1
  F  F29  1  0.907026  0.359787  0.140978  1
