# generated using pymatgen
data_LiMnOF2
_symmetry_space_group_name_H-M   'P 1'
_cell_length_a   6.59066619
_cell_length_b   6.59066619
_cell_length_c   5.31292069
_cell_angle_alpha   83.70117332
_cell_angle_beta   96.29882668
_cell_angle_gamma   94.61209980
_symmetry_Int_Tables_number   1
_chemical_formula_structural   LiMnOF2
_chemical_formula_sum   'Li4 Mn4 O4 F8'
_cell_volume   227.45216780
_cell_formula_units_Z   4
loop_
 _symmetry_equiv_pos_site_id
 _symmetry_equiv_pos_as_xyz
  1  'x, y, z'
loop_
 _atom_site_type_symbol
 _atom_site_label
 _atom_site_symmetry_multiplicity
 _atom_site_fract_x
 _atom_site_fract_y
 _atom_site_fract_z
 _atom_site_occupancy
  Li  Li0  1  0.779394  0.393602  0.328869  1
  Li  Li1  1  0.606398  0.220606  0.828869  1
  Li  Li2  1  0.393602  0.779394  0.171131  1
  Li  Li3  1  0.220606  0.606398  0.671131  1
  Mn  Mn4  1  0.910701  0.910701  0.250000  1
  Mn  Mn5  1  0.742859  0.742859  0.750000  1
  Mn  Mn6  1  0.257141  0.257141  0.250000  1
  Mn  Mn7  1  0.089299  0.089299  0.750000  1
  O  O8  1  0.999235  0.193934  0.401360  1
  O  O9  1  0.806066  0.000765  0.901360  1
  O  O10  1  0.193934  0.999235  0.098640  1
  O  O11  1  0.000765  0.806066  0.598640  1
  F  F12  1  0.868528  0.625944  0.127668  1
  F  F13  1  0.710886  0.467410  0.643060  1
  F  F14  1  0.625944  0.868528  0.372332  1
  F  F15  1  0.532590  0.289114  0.143060  1
  F  F16  1  0.467410  0.710886  0.856940  1
  F  F17  1  0.374056  0.131472  0.627668  1
  F  F18  1  0.289114  0.532590  0.356940  1
  F  F19  1  0.131472  0.374056  0.872332  1
