# generated using pymatgen
data_Na2Si(H3O2)6
_symmetry_space_group_name_H-M   'P 1'
_cell_length_a   11.79742626
_cell_length_b   11.79742626
_cell_length_c   11.79742626
_cell_angle_alpha   121.50831706
_cell_angle_beta   120.41474981
_cell_angle_gamma   88.34517583
_symmetry_Int_Tables_number   1
_chemical_formula_structural   Na2Si(H3O2)6
_chemical_formula_sum   'Na8 Si4 H72 O48'
_cell_volume   1143.51229232
_cell_formula_units_Z   4
loop_
 _symmetry_equiv_pos_site_id
 _symmetry_equiv_pos_as_xyz
  1  'x, y, z'
loop_
 _atom_site_type_symbol
 _atom_site_label
 _atom_site_symmetry_multiplicity
 _atom_site_fract_x
 _atom_site_fract_y
 _atom_site_fract_z
 _atom_site_occupancy
  Na  Na0  1  0.192498  0.406213  0.966270  1
  Na  Na1  1  0.560057  0.093787  0.286285  1
  Na  Na2  1  0.939943  0.226228  0.533730  1
  Na  Na3  1  0.307502  0.273772  0.213715  1
  Na  Na4  1  0.807502  0.593787  0.033730  1
  Na  Na5  1  0.439943  0.906213  0.713715  1
  Na  Na6  1  0.060057  0.773772  0.466270  1
  Na  Na7  1  0.692498  0.726228  0.786285  1
  Si  Si8  1  0.128617  0.750000  0.878617  1
  Si  Si9  1  0.371383  0.250000  0.621383  1
  Si  Si10  1  0.871383  0.250000  0.121383  1
  Si  Si11  1  0.628617  0.750000  0.378617  1
  H  H12  1  0.244092  0.857318  0.149418  1
  H  H13  1  0.292100  0.642682  0.886774  1
  H  H14  1  0.207900  0.094674  0.350582  1
  H  H15  1  0.255908  0.405326  0.613226  1
  H  H16  1  0.755908  0.142682  0.850582  1
  H  H17  1  0.707900  0.357318  0.113226  1
  H  H18  1  0.792100  0.905326  0.649418  1
  H  H19  1  0.744092  0.594674  0.386774  1
  H  H20  1  0.360549  0.445591  0.881816  1
  H  H21  1  0.436225  0.054409  0.414958  1
  H  H22  1  0.063775  0.478733  0.618184  1
  H  H23  1  0.139451  0.021267  0.085042  1
  H  H24  1  0.639451  0.554409  0.118184  1
  H  H25  1  0.563775  0.945591  0.585042  1
  H  H26  1  0.936225  0.521267  0.381816  1
  H  H27  1  0.860549  0.978733  0.914958  1
  H  H28  1  0.439838  0.599199  0.047292  1
  H  H29  1  0.448093  0.900801  0.340639  1
  H  H30  1  0.051907  0.392546  0.452708  1
  H  H31  1  0.060162  0.107454  0.159361  1
  H  H32  1  0.560162  0.400801  0.952708  1
  H  H33  1  0.551907  0.099199  0.659361  1
  H  H34  1  0.948093  0.607454  0.547292  1
  H  H35  1  0.939838  0.892546  0.840639  1
  H  H36  1  0.334257  0.687218  0.264405  1
  H  H37  1  0.577187  0.812782  0.147038  1
  H  H38  1  0.922813  0.069852  0.235595  1
  H  H39  1  0.165743  0.430148  0.352962  1
  H  H40  1  0.665743  0.312782  0.735595  1
  H  H41  1  0.422813  0.187218  0.852962  1
  H  H42  1  0.077187  0.930148  0.764405  1
  H  H43  1  0.834257  0.569852  0.647038  1
  H  H44  1  0.192793  0.673845  0.123023  1
  H  H45  1  0.449177  0.826155  0.018948  1
  H  H46  1  0.050823  0.069770  0.376977  1
  H  H47  1  0.307207  0.430230  0.481052  1
  H  H48  1  0.807207  0.326155  0.876977  1
  H  H49  1  0.550823  0.173845  0.981052  1
  H  H50  1  0.949177  0.930230  0.623023  1
  H  H51  1  0.692793  0.569770  0.518948  1
  H  H52  1  0.997609  0.773845  0.039514  1
  H  H53  1  0.265670  0.726155  0.723765  1
  H  H54  1  0.234330  0.958095  0.460486  1
  H  H55  1  0.502391  0.541905  0.776235  1
  H  H56  1  0.002391  0.226155  0.960486  1
  H  H57  1  0.734330  0.273845  0.276235  1
  H  H58  1  0.765670  0.041905  0.539514  1
  H  H59  1  0.497609  0.458095  0.223765  1
  H  H60  1  0.926697  0.856896  0.125366  1
  H  H61  1  0.268471  0.643104  0.569801  1
  H  H62  1  0.231529  0.801331  0.374634  1
  H  H63  1  0.573303  0.698669  0.930199  1
  H  H64  1  0.073303  0.143104  0.874634  1
  H  H65  1  0.731529  0.356896  0.430199  1
  H  H66  1  0.768471  0.198669  0.625366  1
  H  H67  1  0.426697  0.301331  0.069801  1
  H  H68  1  0.986565  0.500496  0.771864  1
  H  H69  1  0.271368  0.999504  0.986069  1
  H  H70  1  0.228632  0.214701  0.728136  1
  H  H71  1  0.513435  0.285299  0.513931  1
  H  H72  1  0.013435  0.499504  0.228136  1
  H  H73  1  0.728632  0.000496  0.013931  1
  H  H74  1  0.771368  0.785299  0.271864  1
  H  H75  1  0.486565  0.714701  0.486069  1
  H  H76  1  0.905477  0.417867  0.796324  1
  H  H77  1  0.378457  0.082133  0.987610  1
  H  H78  1  0.121543  0.109152  0.703676  1
  H  H79  1  0.594523  0.390848  0.512390  1
  H  H80  1  0.094523  0.582133  0.203676  1
  H  H81  1  0.621543  0.917867  0.012390  1
  H  H82  1  0.878457  0.890848  0.296324  1
  H  H83  1  0.405477  0.609152  0.487610  1
  O  O84  1  0.157769  0.775766  0.047462  1
  O  O85  1  0.271697  0.724234  0.882003  1
  O  O86  1  0.228303  0.110307  0.452538  1
  O  O87  1  0.342231  0.389693  0.617997  1
  O  O88  1  0.842231  0.224234  0.952538  1
  O  O89  1  0.728303  0.275766  0.117997  1
  O  O90  1  0.771697  0.889693  0.547462  1
  O  O91  1  0.657769  0.610307  0.382003  1
  O  O92  1  0.999647  0.607266  0.720026  1
  O  O93  1  0.112760  0.892734  0.892381  1
  O  O94  1  0.387240  0.279621  0.779974  1
  O  O95  1  0.500353  0.220379  0.607619  1
  O  O96  1  0.000353  0.392734  0.279974  1
  O  O97  1  0.887240  0.107266  0.107619  1
  O  O98  1  0.612760  0.720379  0.220026  1
  O  O99  1  0.499647  0.779621  0.392381  1
  O  O100  1  0.345607  0.534422  0.945993  1
  O  O101  1  0.411570  0.965578  0.311185  1
  O  O102  1  0.088430  0.399614  0.554007  1
  O  O103  1  0.154393  0.100386  0.188815  1
  O  O104  1  0.654393  0.465578  0.054007  1
  O  O105  1  0.588430  0.034422  0.688815  1
  O  O106  1  0.911570  0.600386  0.445993  1
  O  O107  1  0.845607  0.899614  0.811185  1
  O  O108  1  0.230005  0.641358  0.193730  1
  O  O109  1  0.552372  0.858642  0.088647  1
  O  O110  1  0.947628  0.036275  0.306270  1
  O  O111  1  0.269995  0.463725  0.411353  1
  O  O112  1  0.769995  0.358642  0.806270  1
  O  O113  1  0.447628  0.141358  0.911353  1
  O  O114  1  0.052372  0.963725  0.693730  1
  O  O115  1  0.730005  0.536275  0.588647  1
  O  O116  1  0.909051  0.766841  0.029170  1
  O  O117  1  0.262329  0.733159  0.642210  1
  O  O118  1  0.237671  0.879881  0.470830  1
  O  O119  1  0.590949  0.620119  0.857790  1
  O  O120  1  0.090949  0.233159  0.970830  1
  O  O121  1  0.737671  0.266841  0.357790  1
  O  O122  1  0.762329  0.120119  0.529170  1
  O  O123  1  0.409051  0.379881  0.142210  1
  O  O124  1  0.984234  0.426582  0.789519  1
  O  O125  1  0.362937  0.073418  0.057652  1
  O  O126  1  0.137063  0.194715  0.710481  1
  O  O127  1  0.515766  0.305285  0.442348  1
  O  O128  1  0.015766  0.573418  0.210481  1
  O  O129  1  0.637063  0.926582  0.942348  1
  O  O130  1  0.862937  0.805285  0.289519  1
  O  O131  1  0.484234  0.694715  0.557652  1
