# generated using pymatgen
data_NaFe3P2(H4O7)2
_symmetry_space_group_name_H-M   'P 1'
_cell_length_a   7.41917699
_cell_length_b   7.41917699
_cell_length_c   19.64348844
_cell_angle_alpha   90.00000000
_cell_angle_beta   90.00000000
_cell_angle_gamma   90.00000000
_symmetry_Int_Tables_number   1
_chemical_formula_structural   NaFe3P2(H4O7)2
_chemical_formula_sum   'Na4 Fe12 P8 H32 O56'
_cell_volume   1081.25985513
_cell_formula_units_Z   4
loop_
 _symmetry_equiv_pos_site_id
 _symmetry_equiv_pos_as_xyz
  1  'x, y, z'
loop_
 _atom_site_type_symbol
 _atom_site_label
 _atom_site_symmetry_multiplicity
 _atom_site_fract_x
 _atom_site_fract_y
 _atom_site_fract_z
 _atom_site_occupancy
  Na  Na0  1  0.873981  0.126019  0.250000  1
  Na  Na1  1  0.126019  0.873981  0.750000  1
  Na  Na2  1  0.626019  0.626019  0.000000  1
  Na  Na3  1  0.373981  0.373981  0.500000  1
  Fe  Fe4  1  0.892376  0.393177  0.492351  1
  Fe  Fe5  1  0.107624  0.606823  0.992351  1
  Fe  Fe6  1  0.893177  0.607624  0.242351  1
  Fe  Fe7  1  0.106823  0.392376  0.742351  1
  Fe  Fe8  1  0.606823  0.107624  0.007649  1
  Fe  Fe9  1  0.393177  0.892376  0.507649  1
  Fe  Fe10  1  0.607624  0.893177  0.757649  1
  Fe  Fe11  1  0.392376  0.106823  0.257649  1
  Fe  Fe12  1  0.602680  0.397320  0.750000  1
  Fe  Fe13  1  0.397320  0.602680  0.250000  1
  Fe  Fe14  1  0.897320  0.897320  0.500000  1
  Fe  Fe15  1  0.102680  0.102680  0.000000  1
  P  P16  1  0.640205  0.132614  0.399445  1
  P  P17  1  0.359795  0.867386  0.899445  1
  P  P18  1  0.632614  0.859795  0.149445  1
  P  P19  1  0.367386  0.140205  0.649445  1
  P  P20  1  0.867386  0.359795  0.100555  1
  P  P21  1  0.132614  0.640205  0.600555  1
  P  P22  1  0.859795  0.632614  0.850555  1
  P  P23  1  0.140205  0.367386  0.350555  1
  H  H24  1  0.570095  0.149973  0.836975  1
  H  H25  1  0.429905  0.850027  0.336975  1
  H  H26  1  0.649973  0.929905  0.586975  1
  H  H27  1  0.350027  0.070095  0.086975  1
  H  H28  1  0.850027  0.429905  0.663025  1
  H  H29  1  0.149973  0.570095  0.163025  1
  H  H30  1  0.929905  0.649973  0.413025  1
  H  H31  1  0.070095  0.350027  0.913025  1
  H  H32  1  0.616993  0.401206  0.599402  1
  H  H33  1  0.383007  0.598794  0.099402  1
  H  H34  1  0.901206  0.883007  0.349402  1
  H  H35  1  0.098794  0.116993  0.849402  1
  H  H36  1  0.598794  0.383007  0.900598  1
  H  H37  1  0.401206  0.616993  0.400598  1
  H  H38  1  0.883007  0.901206  0.650598  1
  H  H39  1  0.116993  0.098794  0.150598  1
  H  H40  1  0.653741  0.601863  0.568115  1
  H  H41  1  0.346259  0.398137  0.068115  1
  H  H42  1  0.101863  0.846259  0.318115  1
  H  H43  1  0.898137  0.153741  0.818115  1
  H  H44  1  0.398137  0.346259  0.931885  1
  H  H45  1  0.601863  0.653741  0.431885  1
  H  H46  1  0.846259  0.101863  0.681885  1
  H  H47  1  0.153741  0.898137  0.181885  1
  H  H48  1  0.015224  0.163298  0.568410  1
  H  H49  1  0.984776  0.836702  0.068410  1
  H  H50  1  0.663298  0.484776  0.318410  1
  H  H51  1  0.336702  0.515224  0.818410  1
  H  H52  1  0.836702  0.984776  0.931590  1
  H  H53  1  0.163298  0.015224  0.431590  1
  H  H54  1  0.484776  0.663298  0.681590  1
  H  H55  1  0.515224  0.336702  0.181590  1
  O  O56  1  0.466609  0.071265  0.436261  1
  O  O57  1  0.533391  0.928735  0.936261  1
  O  O58  1  0.571265  0.033391  0.186261  1
  O  O59  1  0.428735  0.966609  0.686261  1
  O  O60  1  0.928735  0.533391  0.063739  1
  O  O61  1  0.071265  0.466609  0.563739  1
  O  O62  1  0.033391  0.571265  0.813739  1
  O  O63  1  0.966609  0.428735  0.313739  1
  O  O64  1  0.795360  0.992550  0.409949  1
  O  O65  1  0.204640  0.007450  0.909949  1
  O  O66  1  0.492550  0.704640  0.159949  1
  O  O67  1  0.507450  0.295360  0.659949  1
  O  O68  1  0.007450  0.204640  0.090051  1
  O  O69  1  0.992550  0.795360  0.590051  1
  O  O70  1  0.704640  0.492550  0.840051  1
  O  O71  1  0.295360  0.507450  0.340051  1
  O  O72  1  0.696644  0.317666  0.429288  1
  O  O73  1  0.303356  0.682334  0.929288  1
  O  O74  1  0.817666  0.803356  0.179288  1
  O  O75  1  0.182334  0.196644  0.679288  1
  O  O76  1  0.682334  0.303356  0.070712  1
  O  O77  1  0.317666  0.696644  0.570712  1
  O  O78  1  0.803356  0.817666  0.820712  1
  O  O79  1  0.196644  0.182334  0.320712  1
  O  O80  1  0.605540  0.151456  0.321875  1
  O  O81  1  0.394460  0.848544  0.821875  1
  O  O82  1  0.651456  0.894460  0.071875  1
  O  O83  1  0.348544  0.105540  0.571875  1
  O  O84  1  0.848544  0.394460  0.178125  1
  O  O85  1  0.151456  0.605540  0.678125  1
  O  O86  1  0.894460  0.651456  0.928125  1
  O  O87  1  0.105540  0.348544  0.428125  1
  O  O88  1  0.634554  0.148661  0.793307  1
  O  O89  1  0.365446  0.851339  0.293307  1
  O  O90  1  0.648661  0.865446  0.543307  1
  O  O91  1  0.351339  0.134554  0.043307  1
  O  O92  1  0.851339  0.365446  0.706693  1
  O  O93  1  0.148661  0.634554  0.206693  1
  O  O94  1  0.865446  0.648661  0.456693  1
  O  O95  1  0.134554  0.351339  0.956693  1
  O  O96  1  0.672719  0.471218  0.560709  1
  O  O97  1  0.327281  0.528782  0.060709  1
  O  O98  1  0.971218  0.827281  0.310709  1
  O  O99  1  0.028782  0.172719  0.810709  1
  O  O100  1  0.528782  0.327281  0.939291  1
  O  O101  1  0.471218  0.672719  0.439291  1
  O  O102  1  0.827281  0.971218  0.689291  1
  O  O103  1  0.172719  0.028782  0.189291  1
  O  O104  1  0.912262  0.151468  0.537459  1
  O  O105  1  0.087738  0.848532  0.037459  1
  O  O106  1  0.651468  0.587738  0.287459  1
  O  O107  1  0.348532  0.412262  0.787459  1
  O  O108  1  0.848532  0.087738  0.962541  1
  O  O109  1  0.151468  0.912262  0.462541  1
  O  O110  1  0.587738  0.651468  0.712541  1
  O  O111  1  0.412262  0.348532  0.212541  1
