# generated using pymatgen
data_LiLa7(CuO7)2
_symmetry_space_group_name_H-M   'P 1'
_cell_length_a   11.61559920
_cell_length_b   11.61559920
_cell_length_c   11.87668605
_cell_angle_alpha   65.81788666
_cell_angle_beta   114.18211334
_cell_angle_gamma   111.09523628
_symmetry_Int_Tables_number   1
_chemical_formula_structural   LiLa7(CuO7)2
_chemical_formula_sum   'Li4 La28 Cu8 O56'
_cell_volume   1297.51407177
_cell_formula_units_Z   4
loop_
 _symmetry_equiv_pos_site_id
 _symmetry_equiv_pos_as_xyz
  1  'x, y, z'
loop_
 _atom_site_type_symbol
 _atom_site_label
 _atom_site_symmetry_multiplicity
 _atom_site_fract_x
 _atom_site_fract_y
 _atom_site_fract_z
 _atom_site_occupancy
  Li  Li0  1  0.285731  0.714269  0.929184  1
  Li  Li1  1  0.714269  0.285731  0.070816  1
  Li  Li2  1  0.571438  0.428562  0.357548  1
  Li  Li3  1  0.428562  0.571438  0.642452  1
  La  La4  1  0.350041  0.924670  0.074207  1
  La  La5  1  0.075330  0.649959  0.074207  1
  La  La6  1  0.005107  0.714441  0.718048  1
  La  La7  1  0.290314  0.433612  0.142462  1
  La  La8  1  0.285559  0.994893  0.718048  1
  La  La9  1  0.134045  0.134045  0.000000  1
  La  La10  1  0.865955  0.865955  0.000000  1
  La  La11  1  0.566388  0.709686  0.142462  1
  La  La12  1  0.214687  0.066159  0.351747  1
  La  La13  1  0.066159  0.214687  0.648253  1
  La  La14  1  0.495944  0.780678  0.785995  1
  La  La15  1  0.924670  0.350041  0.925793  1
  La  La16  1  0.780678  0.495944  0.214005  1
  La  La17  1  0.933841  0.785313  0.351747  1
  La  La18  1  0.219322  0.504056  0.785995  1
  La  La19  1  0.785313  0.933842  0.648253  1
  La  La20  1  0.649959  0.075330  0.925793  1
  La  La21  1  0.504056  0.219322  0.214005  1
  La  La22  1  0.419273  0.852504  0.424792  1
  La  La23  1  0.852504  0.419273  0.575208  1
  La  La24  1  0.433612  0.290314  0.857538  1
  La  La25  1  0.580727  0.147496  0.575208  1
  La  La26  1  0.147496  0.580727  0.424792  1
  La  La27  1  0.709686  0.566388  0.857538  1
  La  La28  1  0.994893  0.285559  0.281952  1
  La  La29  1  0.714441  0.005107  0.281952  1
  La  La30  1  0.639746  0.639746  0.500000  1
  La  La31  1  0.360254  0.360254  0.500000  1
  Cu  Cu32  1  0.214483  0.785517  0.571978  1
  Cu  Cu33  1  0.071675  0.928325  0.856780  1
  Cu  Cu34  1  0.928325  0.071675  0.143220  1
  Cu  Cu35  1  0.000000  0.000000  0.500000  1
  Cu  Cu36  1  0.357517  0.642483  0.285740  1
  Cu  Cu37  1  0.785517  0.214483  0.428022  1
  Cu  Cu38  1  0.642483  0.357517  0.714260  1
  Cu  Cu39  1  0.500000  0.500000  0.000000  1
  O  O40  1  0.321990  0.678010  0.111035  1
  O  O41  1  0.253104  0.746896  0.250437  1
  O  O42  1  0.328746  0.042134  0.216195  1
  O  O43  1  0.957866  0.671254  0.216195  1
  O  O44  1  0.319655  0.680345  0.605849  1
  O  O45  1  0.032549  0.967451  0.177594  1
  O  O46  1  0.249253  0.750747  0.747158  1
  O  O47  1  0.176848  0.823152  0.892796  1
  O  O48  1  0.106413  0.893587  0.031614  1
  O  O49  1  0.887243  0.744483  0.855917  1
  O  O50  1  0.255517  0.112757  0.855917  1
  O  O51  1  0.313953  0.313953  0.000000  1
  O  O52  1  0.686047  0.686047  0.000000  1
  O  O53  1  0.112757  0.255517  0.144083  1
  O  O54  1  0.744483  0.887243  0.144083  1
  O  O55  1  0.893587  0.106413  0.968386  1
  O  O56  1  0.750747  0.249253  0.252842  1
  O  O57  1  0.823152  0.176848  0.107204  1
  O  O58  1  0.179381  0.820619  0.397840  1
  O  O59  1  0.035448  0.964552  0.678950  1
  O  O60  1  0.107966  0.892034  0.535348  1
  O  O61  1  0.967451  0.032549  0.822406  1
  O  O62  1  0.105458  0.534339  0.927546  1
  O  O63  1  0.820877  0.820877  0.500000  1
  O  O64  1  0.042134  0.328746  0.783805  1
  O  O65  1  0.608769  0.750447  0.643714  1
  O  O66  1  0.179123  0.179123  0.500000  1
  O  O67  1  0.465661  0.894542  0.927546  1
  O  O68  1  0.671254  0.957866  0.783805  1
  O  O69  1  0.534339  0.105458  0.072454  1
  O  O70  1  0.249553  0.391231  0.643714  1
  O  O71  1  0.894542  0.465661  0.072454  1
  O  O72  1  0.678010  0.321990  0.888965  1
  O  O73  1  0.534800  0.465200  0.174376  1
  O  O74  1  0.892034  0.107966  0.464652  1
  O  O75  1  0.746896  0.253104  0.749563  1
  O  O76  1  0.604519  0.395481  0.034331  1
  O  O77  1  0.964552  0.035448  0.321050  1
  O  O78  1  0.820619  0.179381  0.602160  1
  O  O79  1  0.542203  0.827898  0.285725  1
  O  O80  1  0.827898  0.542203  0.714275  1
  O  O81  1  0.970980  0.397764  0.429323  1
  O  O82  1  0.397764  0.970980  0.570677  1
  O  O83  1  0.172102  0.457797  0.285725  1
  O  O84  1  0.602236  0.029020  0.429323  1
  O  O85  1  0.457797  0.172102  0.714275  1
  O  O86  1  0.029020  0.602236  0.570677  1
  O  O87  1  0.607862  0.392138  0.539879  1
  O  O88  1  0.537327  0.462673  0.678436  1
  O  O89  1  0.395481  0.604519  0.965669  1
  O  O90  1  0.680345  0.319655  0.394151  1
  O  O91  1  0.465200  0.534800  0.825624  1
  O  O92  1  0.391231  0.249553  0.356286  1
  O  O93  1  0.750447  0.608769  0.356286  1
  O  O94  1  0.392138  0.607862  0.460121  1
  O  O95  1  0.462673  0.537327  0.321564  1
