# generated using pymatgen
data_LiCrBO3
_symmetry_space_group_name_H-M   'P 1'
_cell_length_a   5.26664265
_cell_length_b   5.27438996
_cell_length_c   5.77621475
_cell_angle_alpha   90.82594173
_cell_angle_beta   113.74625397
_cell_angle_gamma   118.75359585
_symmetry_Int_Tables_number   1
_chemical_formula_structural   LiCrBO3
_chemical_formula_sum   'Li2 Cr2 B2 O6'
_cell_volume   124.35388338
_cell_formula_units_Z   2
loop_
 _symmetry_equiv_pos_site_id
 _symmetry_equiv_pos_as_xyz
  1  'x, y, z'
loop_
 _atom_site_type_symbol
 _atom_site_label
 _atom_site_symmetry_multiplicity
 _atom_site_fract_x
 _atom_site_fract_y
 _atom_site_fract_z
 _atom_site_occupancy
  Li  Li0  1  0.449672  0.382270  0.688223  1
  Li  Li1  1  0.550328  0.617730  0.311777  1
  Cr  Cr2  1  0.163064  0.775929  0.750411  1
  Cr  Cr3  1  0.836936  0.224071  0.249589  1
  B  B4  1  0.809491  0.074809  0.740383  1
  B  B5  1  0.190509  0.925191  0.259617  1
  O  O6  1  0.014891  0.290501  0.656801  1
  O  O7  1  0.645937  0.147085  0.844583  1
  O  O8  1  0.748256  0.788544  0.708023  1
  O  O9  1  0.251744  0.211456  0.291977  1
  O  O10  1  0.354063  0.852915  0.155417  1
  O  O11  1  0.985109  0.709499  0.343199  1
