# generated using pymatgen
data_FeOF
_symmetry_space_group_name_H-M   'P 1'
_cell_length_a   4.75112656
_cell_length_b   3.12241477
_cell_length_c   9.43724639
_cell_angle_alpha   90.00000000
_cell_angle_beta   90.10589974
_cell_angle_gamma   90.00000000
_symmetry_Int_Tables_number   1
_chemical_formula_structural   FeOF
_chemical_formula_sum   'Fe4 O4 F4'
_cell_volume   140.00119521
_cell_formula_units_Z   4
loop_
 _symmetry_equiv_pos_site_id
 _symmetry_equiv_pos_as_xyz
  1  'x, y, z'
loop_
 _atom_site_type_symbol
 _atom_site_label
 _atom_site_symmetry_multiplicity
 _atom_site_fract_x
 _atom_site_fract_y
 _atom_site_fract_z
 _atom_site_occupancy
  Fe  Fe0  1  0.975967  0.000000  0.011171  1
  Fe  Fe1  1  0.977887  0.000000  0.512120  1
  Fe  Fe2  1  0.483543  0.500000  0.722421  1
  Fe  Fe3  1  0.548623  0.500000  0.260977  1
  O  O4  1  0.805100  0.500000  0.599533  1
  O  O5  1  0.806096  0.500000  0.094650  1
  O  O6  1  0.706623  0.000000  0.348597  1
  O  O7  1  0.297912  0.000000  0.649736  1
  F  F8  1  0.695115  0.000000  0.848178  1
  F  F9  1  0.307311  0.000000  0.151147  1
  F  F10  1  0.195484  0.500000  0.905829  1
  F  F11  1  0.200341  0.500000  0.395642  1
