# generated using pymatgen
data_Li8VO5F
_symmetry_space_group_name_H-M   'P 1'
_cell_length_a   5.42294264
_cell_length_b   5.45319222
_cell_length_c   5.94978604
_cell_angle_alpha   90.69800453
_cell_angle_beta   116.37497267
_cell_angle_gamma   118.37011185
_symmetry_Int_Tables_number   1
_chemical_formula_structural   Li8VO5F
_chemical_formula_sum   'Li8 V1 O5 F1'
_cell_volume   133.02196226
_cell_formula_units_Z   1
loop_
 _symmetry_equiv_pos_site_id
 _symmetry_equiv_pos_as_xyz
  1  'x, y, z'
loop_
 _atom_site_type_symbol
 _atom_site_label
 _atom_site_symmetry_multiplicity
 _atom_site_fract_x
 _atom_site_fract_y
 _atom_site_fract_z
 _atom_site_occupancy
  Li  Li0  1  0.242295  0.481335  0.362305  1
  Li  Li1  1  0.130728  0.234538  0.653474  1
  Li  Li2  1  0.407084  0.895208  0.641516  1
  Li  Li3  1  0.716759  0.346010  0.011002  1
  Li  Li4  1  0.308704  0.678000  0.962556  1
  Li  Li5  1  0.587242  0.090590  0.357235  1
  Li  Li6  1  0.888278  0.783533  0.362231  1
  Li  Li7  1  0.752736  0.516493  0.653269  1
  V  V8  1  0.968621  0.976603  0.983313  1
  O  O9  1  0.513744  0.605057  0.760577  1
  O  O10  1  0.859223  0.094332  0.238729  1
  O  O11  1  0.152581  0.765941  0.233845  1
  O  O12  1  0.840133  0.228572  0.762920  1
  O  O13  1  0.129826  0.901586  0.755033  1
  F  F14  1  0.502046  0.402201  0.261996  1
