# generated using pymatgen
data_Ni3Sn(PO4)4
_symmetry_space_group_name_H-M   'P 1'
_cell_length_a   4.84522940
_cell_length_b   5.87729157
_cell_length_c   9.97036757
_cell_angle_alpha   90.00000000
_cell_angle_beta   90.19922703
_cell_angle_gamma   90.00000000
_symmetry_Int_Tables_number   1
_chemical_formula_structural   Ni3Sn(PO4)4
_chemical_formula_sum   'Ni3 Sn1 P4 O16'
_cell_volume   283.92270512
_cell_formula_units_Z   1
loop_
 _symmetry_equiv_pos_site_id
 _symmetry_equiv_pos_as_xyz
  1  'x, y, z'
loop_
 _atom_site_type_symbol
 _atom_site_label
 _atom_site_symmetry_multiplicity
 _atom_site_fract_x
 _atom_site_fract_y
 _atom_site_fract_z
 _atom_site_occupancy
  Ni  Ni0  1  0.956296  0.500000  0.726964  1
  Ni  Ni1  1  0.545531  0.500000  0.224185  1
  Ni  Ni2  1  0.454562  0.000000  0.771713  1
  Sn  Sn3  1  0.037758  0.000000  0.276477  1
  P  P4  1  0.905860  0.000000  0.601250  1
  P  P5  1  0.595087  0.000000  0.087345  1
  P  P6  1  0.408977  0.500000  0.901996  1
  P  P7  1  0.087626  0.500000  0.410411  1
  O  O8  1  0.821334  0.000000  0.450279  1
  O  O9  1  0.761376  0.204745  0.673472  1
  O  O10  1  0.761376  0.795255  0.673472  1
  O  O11  1  0.778270  0.500000  0.387172  1
  O  O12  1  0.724329  0.500000  0.889564  1
  O  O13  1  0.742200  0.202670  0.166512  1
  O  O14  1  0.742200  0.797330  0.166512  1
  O  O15  1  0.666604  0.000000  0.939925  1
  O  O16  1  0.338296  0.500000  0.051735  1
  O  O17  1  0.263478  0.704484  0.827989  1
  O  O18  1  0.263478  0.295516  0.827989  1
  O  O19  1  0.280764  0.000000  0.109443  1
  O  O20  1  0.220751  0.000000  0.609789  1
  O  O21  1  0.238695  0.704396  0.333824  1
  O  O22  1  0.238695  0.295604  0.333824  1
  O  O23  1  0.166460  0.500000  0.558161  1
