# generated using pymatgen
data_Li4V5Sb3O16
_symmetry_space_group_name_H-M   'P 1'
_cell_length_a   6.13389982
_cell_length_b   6.21876834
_cell_length_c   9.77938887
_cell_angle_alpha   90.86115841
_cell_angle_beta   90.03342480
_cell_angle_gamma   118.93442590
_symmetry_Int_Tables_number   1
_chemical_formula_structural   Li4V5Sb3O16
_chemical_formula_sum   'Li4 V5 Sb3 O16'
_cell_volume   326.42290359
_cell_formula_units_Z   1
loop_
 _symmetry_equiv_pos_site_id
 _symmetry_equiv_pos_as_xyz
  1  'x, y, z'
loop_
 _atom_site_type_symbol
 _atom_site_label
 _atom_site_symmetry_multiplicity
 _atom_site_fract_x
 _atom_site_fract_y
 _atom_site_fract_z
 _atom_site_occupancy
  Li  Li0  1  0.659517  0.333356  0.884331  1
  Li  Li1  1  0.991536  0.010520  0.992948  1
  Li  Li2  1  0.998290  0.011527  0.500935  1
  Li  Li3  1  0.321372  0.657958  0.400476  1
  V  V4  1  0.673189  0.319512  0.488807  1
  V  V5  1  0.353414  0.677952  0.980211  1
  V  V6  1  0.830888  0.167076  0.211912  1
  V  V7  1  0.664827  0.832386  0.712511  1
  V  V8  1  0.168586  0.336959  0.715256  1
  Sb  Sb9  1  0.832262  0.661179  0.213201  1
  Sb  Sb10  1  0.340609  0.168491  0.212546  1
  Sb  Sb11  1  0.170285  0.830667  0.714072  1
  O  O12  1  0.846861  0.683488  0.601591  1
  O  O13  1  0.497676  0.452996  0.352169  1
  O  O14  1  0.645492  0.307676  0.094215  1
  O  O15  1  0.020732  0.022698  0.316745  1
  O  O16  1  0.007530  0.998798  0.812685  1
  O  O17  1  0.322261  0.154336  0.605941  1
  O  O18  1  0.950327  0.449631  0.350882  1
  O  O19  1  0.513429  0.029652  0.331839  1
  O  O20  1  0.184877  0.859864  0.089852  1
  O  O21  1  0.836222  0.159856  0.609433  1
  O  O22  1  0.479601  0.962880  0.835474  1
  O  O23  1  0.043862  0.531602  0.840601  1
  O  O24  1  0.326644  0.667119  0.604180  1
  O  O25  1  0.673045  0.858544  0.092530  1
  O  O26  1  0.481340  0.531419  0.838298  1
  O  O27  1  0.165626  0.322158  0.104198  1
