# generated using pymatgen
data_LiFePO4
_symmetry_space_group_name_H-M   'P 1'
_cell_length_a   4.87846509
_cell_length_b   8.07826281
_cell_length_c   16.99989414
_cell_angle_alpha   90.00000000
_cell_angle_beta   90.00000000
_cell_angle_gamma   90.00000000
_symmetry_Int_Tables_number   1
_chemical_formula_structural   LiFePO4
_chemical_formula_sum   'Li8 Fe8 P8 O32'
_cell_volume   669.95772092
_cell_formula_units_Z   8
loop_
 _symmetry_equiv_pos_site_id
 _symmetry_equiv_pos_as_xyz
  1  'x, y, z'
loop_
 _atom_site_type_symbol
 _atom_site_label
 _atom_site_symmetry_multiplicity
 _atom_site_fract_x
 _atom_site_fract_y
 _atom_site_fract_z
 _atom_site_occupancy
  Li  Li0  1  0.941916  0.033876  0.442886  1
  Li  Li1  1  0.471210  0.129186  0.865328  1
  Li  Li2  1  0.971210  0.370814  0.365328  1
  Li  Li3  1  0.441916  0.466124  0.942886  1
  Li  Li4  1  0.941916  0.533876  0.057114  1
  Li  Li5  1  0.471210  0.629186  0.634672  1
  Li  Li6  1  0.971210  0.870814  0.134672  1
  Li  Li7  1  0.441916  0.966124  0.557114  1
  Fe  Fe8  1  0.600792  0.068653  0.282719  1
  Fe  Fe9  1  0.482283  0.154161  0.056096  1
  Fe  Fe10  1  0.982283  0.345839  0.556096  1
  Fe  Fe11  1  0.100792  0.431347  0.782719  1
  Fe  Fe12  1  0.600792  0.568653  0.217281  1
  Fe  Fe13  1  0.482283  0.654161  0.443904  1
  Fe  Fe14  1  0.982283  0.845839  0.943904  1
  Fe  Fe15  1  0.100792  0.931347  0.717281  1
  P  P16  1  0.944240  0.246405  0.179278  1
  P  P17  1  0.429587  0.252133  0.438866  1
  P  P18  1  0.929587  0.247867  0.938866  1
  P  P19  1  0.444240  0.253595  0.679278  1
  P  P20  1  0.944240  0.746405  0.320722  1
  P  P21  1  0.429587  0.752133  0.061134  1
  P  P22  1  0.929587  0.747867  0.561134  1
  P  P23  1  0.444240  0.753595  0.820722  1
  O  O24  1  0.774303  0.092858  0.148110  1
  O  O25  1  0.277632  0.122526  0.489069  1
  O  O26  1  0.785861  0.079073  0.958526  1
  O  O27  1  0.316659  0.088144  0.649697  1
  O  O28  1  0.246917  0.232276  0.154945  1
  O  O29  1  0.744173  0.255738  0.455151  1
  O  O30  1  0.899532  0.243866  0.269521  1
  O  O31  1  0.876066  0.282473  0.850486  1
  O  O32  1  0.376066  0.217527  0.350486  1
  O  O33  1  0.399532  0.256134  0.769521  1
  O  O34  1  0.244173  0.244262  0.955151  1
  O  O35  1  0.746917  0.267724  0.654945  1
  O  O36  1  0.816659  0.411856  0.149697  1
  O  O37  1  0.285861  0.420927  0.458526  1
  O  O38  1  0.777632  0.377474  0.989069  1
  O  O39  1  0.274303  0.407142  0.648110  1
  O  O40  1  0.774303  0.592858  0.351890  1
  O  O41  1  0.277632  0.622526  0.010931  1
  O  O42  1  0.785861  0.579073  0.541474  1
  O  O43  1  0.316659  0.588144  0.850303  1
  O  O44  1  0.246917  0.732276  0.345055  1
  O  O45  1  0.744173  0.755738  0.044849  1
  O  O46  1  0.899532  0.743866  0.230479  1
  O  O47  1  0.876066  0.782473  0.649514  1
  O  O48  1  0.376066  0.717527  0.149514  1
  O  O49  1  0.399532  0.756134  0.730479  1
  O  O50  1  0.244173  0.744262  0.544849  1
  O  O51  1  0.746917  0.767724  0.845055  1
  O  O52  1  0.816659  0.911856  0.350303  1
  O  O53  1  0.285861  0.920927  0.041474  1
  O  O54  1  0.777632  0.877474  0.510931  1
  O  O55  1  0.274303  0.907142  0.851890  1
