# generated using pymatgen
data_Li2Mn3NiO8
_symmetry_space_group_name_H-M   'P 1'
_cell_length_a   8.28384561
_cell_length_b   8.28384561
_cell_length_c   8.28384561
_cell_angle_alpha   90.00000000
_cell_angle_beta   90.00000000
_cell_angle_gamma   90.00000000
_symmetry_Int_Tables_number   1
_chemical_formula_structural   Li2Mn3NiO8
_chemical_formula_sum   'Li8 Mn12 Ni4 O32'
_cell_volume   568.45486650
_cell_formula_units_Z   4
loop_
 _symmetry_equiv_pos_site_id
 _symmetry_equiv_pos_as_xyz
  1  'x, y, z'
loop_
 _atom_site_type_symbol
 _atom_site_label
 _atom_site_symmetry_multiplicity
 _atom_site_fract_x
 _atom_site_fract_y
 _atom_site_fract_z
 _atom_site_occupancy
  Li  Li0  1  0.003734  0.003734  0.003734  1
  Li  Li1  1  0.246266  0.246266  0.246266  1
  Li  Li2  1  0.253734  0.753734  0.746266  1
  Li  Li3  1  0.496266  0.996266  0.503734  1
  Li  Li4  1  0.503734  0.496266  0.996266  1
  Li  Li5  1  0.746266  0.253734  0.753734  1
  Li  Li6  1  0.753734  0.746266  0.253734  1
  Li  Li7  1  0.996266  0.503734  0.496266  1
  Mn  Mn8  1  0.121180  0.128820  0.625000  1
  Mn  Mn9  1  0.125000  0.378820  0.871180  1
  Mn  Mn10  1  0.128820  0.625000  0.121180  1
  Mn  Mn11  1  0.371180  0.375000  0.621180  1
  Mn  Mn12  1  0.375000  0.621180  0.371180  1
  Mn  Mn13  1  0.378820  0.871180  0.125000  1
  Mn  Mn14  1  0.621180  0.371180  0.375000  1
  Mn  Mn15  1  0.625000  0.121180  0.128820  1
  Mn  Mn16  1  0.628820  0.875000  0.878820  1
  Mn  Mn17  1  0.871180  0.125000  0.378820  1
  Mn  Mn18  1  0.875000  0.878820  0.628820  1
  Mn  Mn19  1  0.878820  0.628820  0.875000  1
  Ni  Ni20  1  0.125000  0.875000  0.375000  1
  Ni  Ni21  1  0.375000  0.125000  0.875000  1
  Ni  Ni22  1  0.625000  0.625000  0.625000  1
  Ni  Ni23  1  0.875000  0.375000  0.125000  1
  O  O24  1  0.101299  0.123886  0.392103  1
  O  O25  1  0.107897  0.898701  0.623886  1
  O  O26  1  0.115530  0.615530  0.884470  1
  O  O27  1  0.123886  0.392103  0.101299  1
  O  O28  1  0.126114  0.148701  0.857897  1
  O  O29  1  0.134470  0.365530  0.634470  1
  O  O30  1  0.142103  0.626114  0.351299  1
  O  O31  1  0.148701  0.857897  0.126114  1
  O  O32  1  0.351299  0.142103  0.626114  1
  O  O33  1  0.357897  0.373886  0.851299  1
  O  O34  1  0.365530  0.634470  0.134470  1
  O  O35  1  0.373886  0.851299  0.357897  1
  O  O36  1  0.376114  0.607897  0.601299  1
  O  O37  1  0.384470  0.384470  0.384470  1
  O  O38  1  0.392103  0.101299  0.123886  1
  O  O39  1  0.398701  0.876114  0.892103  1
  O  O40  1  0.601299  0.376114  0.607897  1
  O  O41  1  0.607897  0.601299  0.376114  1
  O  O42  1  0.615530  0.884470  0.115530  1
  O  O43  1  0.623886  0.107897  0.898701  1
  O  O44  1  0.626114  0.351299  0.142103  1
  O  O45  1  0.634470  0.134470  0.365530  1
  O  O46  1  0.642103  0.873886  0.648701  1
  O  O47  1  0.648701  0.642103  0.873886  1
  O  O48  1  0.851299  0.357897  0.373886  1
  O  O49  1  0.857897  0.126114  0.148701  1
  O  O50  1  0.865530  0.865530  0.865530  1
  O  O51  1  0.873886  0.648701  0.642103  1
  O  O52  1  0.876114  0.892103  0.398701  1
  O  O53  1  0.884470  0.115530  0.615530  1
  O  O54  1  0.892103  0.398701  0.876114  1
  O  O55  1  0.898701  0.623886  0.107897  1
