# generated using pymatgen
data_Li2Ti2S5
_symmetry_space_group_name_H-M   'P 1'
_cell_length_a   6.12541727
_cell_length_b   6.12541727
_cell_length_c   11.91771951
_cell_angle_alpha   68.75103973
_cell_angle_beta   111.24896027
_cell_angle_gamma   118.90489053
_symmetry_Int_Tables_number   1
_chemical_formula_structural   Li2Ti2S5
_chemical_formula_sum   'Li4 Ti4 S10'
_cell_volume   355.10510800
_cell_formula_units_Z   2
loop_
 _symmetry_equiv_pos_site_id
 _symmetry_equiv_pos_as_xyz
  1  'x, y, z'
loop_
 _atom_site_type_symbol
 _atom_site_label
 _atom_site_symmetry_multiplicity
 _atom_site_fract_x
 _atom_site_fract_y
 _atom_site_fract_z
 _atom_site_occupancy
  Li  Li0  1  0.443852  0.824541  0.675516  1
  Li  Li1  1  0.175459  0.556148  0.175516  1
  Li  Li2  1  0.824541  0.443852  0.824484  1
  Li  Li3  1  0.556148  0.175459  0.324484  1
  Ti  Ti4  1  0.072638  0.249125  0.557825  1
  Ti  Ti5  1  0.249125  0.072638  0.942175  1
  Ti  Ti6  1  0.750875  0.927362  0.057825  1
  Ti  Ti7  1  0.927362  0.750875  0.442175  1
  S  S8  1  0.287820  0.714305  0.960967  1
  S  S9  1  0.285695  0.712180  0.460967  1
  S  S10  1  0.812547  0.979126  0.862437  1
  S  S11  1  0.356092  0.356092  0.750000  1
  S  S12  1  0.979126  0.812547  0.637563  1
  S  S13  1  0.020874  0.187453  0.362437  1
  S  S14  1  0.643908  0.643908  0.250000  1
  S  S15  1  0.187453  0.020874  0.137563  1
  S  S16  1  0.714305  0.287820  0.539033  1
  S  S17  1  0.712180  0.285695  0.039033  1
