# generated using pymatgen
data_Ba4Ta2O9
_symmetry_space_group_name_H-M   'P 1'
_cell_length_a   6.26482649
_cell_length_b   6.26482649
_cell_length_c   15.93120212
_cell_angle_alpha   90.00000000
_cell_angle_beta   90.00000000
_cell_angle_gamma   120.00000000
_symmetry_Int_Tables_number   1
_chemical_formula_structural   Ba4Ta2O9
_chemical_formula_sum   'Ba8 Ta4 O18'
_cell_volume   541.49851948
_cell_formula_units_Z   2
loop_
 _symmetry_equiv_pos_site_id
 _symmetry_equiv_pos_as_xyz
  1  'x, y, z'
loop_
 _atom_site_type_symbol
 _atom_site_label
 _atom_site_symmetry_multiplicity
 _atom_site_fract_x
 _atom_site_fract_y
 _atom_site_fract_z
 _atom_site_occupancy
  Ba  Ba0  1  0.333333  0.666667  0.532174  1
  Ba  Ba1  1  0.333333  0.666667  0.794718  1
  Ba  Ba2  1  0.333333  0.666667  0.294718  1
  Ba  Ba3  1  0.333333  0.666667  0.032174  1
  Ba  Ba4  1  0.666667  0.333333  0.705282  1
  Ba  Ba5  1  0.666667  0.333333  0.205282  1
  Ba  Ba6  1  0.666667  0.333333  0.967826  1
  Ba  Ba7  1  0.666667  0.333333  0.467826  1
  Ta  Ta8  1  0.000000  0.000000  0.652538  1
  Ta  Ta9  1  0.000000  0.000000  0.847462  1
  Ta  Ta10  1  0.000000  0.000000  0.152538  1
  Ta  Ta11  1  0.000000  0.000000  0.347462  1
  O  O12  1  0.000000  0.764949  0.250000  1
  O  O13  1  0.036337  0.742295  0.902459  1
  O  O14  1  0.257705  0.963663  0.402459  1
  O  O15  1  0.036337  0.294042  0.402459  1
  O  O16  1  0.000000  0.235051  0.750000  1
  O  O17  1  0.235051  0.235051  0.250000  1
  O  O18  1  0.257705  0.294042  0.902459  1
  O  O19  1  0.705958  0.963663  0.902459  1
  O  O20  1  0.294042  0.257705  0.597541  1
  O  O21  1  0.235051  0.000000  0.750000  1
  O  O22  1  0.705958  0.742295  0.402459  1
  O  O23  1  0.294042  0.036337  0.097541  1
  O  O24  1  0.742295  0.705958  0.097541  1
  O  O25  1  0.764949  0.764949  0.750000  1
  O  O26  1  0.963663  0.705958  0.597541  1
  O  O27  1  0.742295  0.036337  0.597541  1
  O  O28  1  0.764949  0.000000  0.250000  1
  O  O29  1  0.963663  0.257705  0.097541  1
