# generated using pymatgen
data_ZrU9O20
_symmetry_space_group_name_H-M   'P 1'
_cell_length_a   6.60598175
_cell_length_b   7.63099204
_cell_length_c   8.52948595
_cell_angle_alpha   102.92273946
_cell_angle_beta   97.43138947
_cell_angle_gamma   106.78101340
_symmetry_Int_Tables_number   1
_chemical_formula_structural   ZrU9O20
_chemical_formula_sum   'Zr1 U9 O20'
_cell_volume   392.47843543
_cell_formula_units_Z   1
loop_
 _symmetry_equiv_pos_site_id
 _symmetry_equiv_pos_as_xyz
  1  'x, y, z'
loop_
 _atom_site_type_symbol
 _atom_site_label
 _atom_site_symmetry_multiplicity
 _atom_site_fract_x
 _atom_site_fract_y
 _atom_site_fract_z
 _atom_site_occupancy
  Zr  Zr0  1  0.000000  0.000000  0.000000  1
  U  U1  1  0.000000  0.500000  0.000000  1
  U  U2  1  0.400575  0.801318  0.801238  1
  U  U3  1  0.397993  0.298519  0.800829  1
  U  U4  1  0.800994  0.100161  0.602023  1
  U  U5  1  0.801030  0.601390  0.601778  1
  U  U6  1  0.198970  0.398610  0.398222  1
  U  U7  1  0.199006  0.899839  0.397977  1
  U  U8  1  0.602007  0.701481  0.199171  1
  U  U9  1  0.599425  0.198682  0.198762  1
  O  O10  1  0.341238  0.072438  0.951540  1
  O  O11  1  0.349076  0.575413  0.949478  1
  O  O12  1  0.049353  0.219336  0.854223  1
  O  O13  1  0.049788  0.732369  0.854295  1
  O  O14  1  0.449670  0.525500  0.650333  1
  O  O15  1  0.450894  0.024822  0.650875  1
  O  O16  1  0.752228  0.375582  0.751179  1
  O  O17  1  0.756614  0.878544  0.757430  1
  O  O18  1  0.149964  0.675016  0.549749  1
  O  O19  1  0.150707  0.174946  0.549801  1
  O  O20  1  0.850036  0.324984  0.450251  1
  O  O21  1  0.550330  0.474500  0.349667  1
  O  O22  1  0.549106  0.975178  0.349125  1
  O  O23  1  0.849293  0.825054  0.450199  1
  O  O24  1  0.243386  0.121456  0.242570  1
  O  O25  1  0.247772  0.624418  0.248821  1
  O  O26  1  0.650924  0.424587  0.050522  1
  O  O27  1  0.658762  0.927562  0.048460  1
  O  O28  1  0.950212  0.267631  0.145705  1
  O  O29  1  0.950647  0.780664  0.145777  1
