# generated using pymatgen
data_Mn12O7F17
_symmetry_space_group_name_H-M   'P 1'
_cell_length_a   4.80046522
_cell_length_b   5.79388317
_cell_length_c   15.85539299
_cell_angle_alpha   89.45927097
_cell_angle_beta   89.78954548
_cell_angle_gamma   86.13894237
_symmetry_Int_Tables_number   1
_chemical_formula_structural   Mn12O7F17
_chemical_formula_sum   'Mn12 O7 F17'
_cell_volume   439.96878972
_cell_formula_units_Z   1
loop_
 _symmetry_equiv_pos_site_id
 _symmetry_equiv_pos_as_xyz
  1  'x, y, z'
loop_
 _atom_site_type_symbol
 _atom_site_label
 _atom_site_symmetry_multiplicity
 _atom_site_fract_x
 _atom_site_fract_y
 _atom_site_fract_z
 _atom_site_occupancy
  Mn  Mn0  1  0.998415  0.821989  0.412926  1
  Mn  Mn1  1  0.963328  0.170454  0.245351  1
  Mn  Mn2  1  0.004444  0.846046  0.084838  1
  Mn  Mn3  1  0.984674  0.844653  0.743823  1
  Mn  Mn4  1  0.001059  0.149614  0.581367  1
  Mn  Mn5  1  0.978194  0.162991  0.905192  1
  Mn  Mn6  1  0.514461  0.688129  0.598108  1
  Mn  Mn7  1  0.475909  0.669846  0.926766  1
  Mn  Mn8  1  0.499157  0.644013  0.257262  1
  Mn  Mn9  1  0.495466  0.339009  0.084040  1
  Mn  Mn10  1  0.490783  0.354659  0.410722  1
  Mn  Mn11  1  0.504627  0.347376  0.750832  1
  O  O12  1  0.794492  0.889287  0.637547  1
  O  O13  1  0.779148  0.115866  0.133944  1
  O  O14  1  0.765551  0.110013  0.796717  1
  O  O15  1  0.714604  0.394139  0.310114  1
  O  O16  1  0.274605  0.609696  0.037615  1
  O  O17  1  0.283788  0.608368  0.358195  1
  O  O18  1  0.287685  0.617997  0.697623  1
  F  F19  1  0.760295  0.892798  0.305344  1
  F  F20  1  0.782104  0.882720  0.973224  1
  F  F21  1  0.755414  0.120113  0.467100  1
  F  F22  1  0.734663  0.617244  0.151156  1
  F  F23  1  0.728983  0.623387  0.486836  1
  F  F24  1  0.745309  0.384464  0.643285  1
  F  F25  1  0.734592  0.599738  0.815105  1
  F  F26  1  0.729769  0.382251  0.979454  1
  F  F27  1  0.270668  0.369996  0.190036  1
  F  F28  1  0.273143  0.381255  0.521596  1
  F  F29  1  0.278889  0.382382  0.861725  1
  F  F30  1  0.233670  0.874393  0.198088  1
  F  F31  1  0.240589  0.889965  0.521695  1
  F  F32  1  0.209531  0.113640  0.354962  1
  F  F33  1  0.239258  0.102521  0.017444  1
  F  F34  1  0.214399  0.876798  0.849973  1
  F  F35  1  0.258335  0.122193  0.689995  1
