# generated using pymatgen
data_Sr5As5HO18
_symmetry_space_group_name_H-M   'P 1'
_cell_length_a   7.26845476
_cell_length_b   7.26478716
_cell_length_c   33.62024241
_cell_angle_alpha   90.00000000
_cell_angle_beta   98.47093869
_cell_angle_gamma   90.00000000
_symmetry_Int_Tables_number   1
_chemical_formula_structural   Sr5As5HO18
_chemical_formula_sum   'Sr20 As20 H4 O72'
_cell_volume   1755.90877479
_cell_formula_units_Z   4
loop_
 _symmetry_equiv_pos_site_id
 _symmetry_equiv_pos_as_xyz
  1  'x, y, z'
loop_
 _atom_site_type_symbol
 _atom_site_label
 _atom_site_symmetry_multiplicity
 _atom_site_fract_x
 _atom_site_fract_y
 _atom_site_fract_z
 _atom_site_occupancy
  Sr  Sr0  1  0.831488  0.848082  0.245824  1
  Sr  Sr1  1  0.831488  0.651918  0.745824  1
  Sr  Sr2  1  0.168512  0.151918  0.754176  1
  Sr  Sr3  1  0.168512  0.348082  0.254176  1
  Sr  Sr4  1  0.335941  0.598171  0.443900  1
  Sr  Sr5  1  0.335941  0.901829  0.943900  1
  Sr  Sr6  1  0.664059  0.401829  0.556100  1
  Sr  Sr7  1  0.664059  0.098171  0.056100  1
  Sr  Sr8  1  0.679082  0.158532  0.445593  1
  Sr  Sr9  1  0.679082  0.341468  0.945593  1
  Sr  Sr10  1  0.320918  0.841468  0.554407  1
  Sr  Sr11  1  0.320918  0.658532  0.054407  1
  Sr  Sr12  1  0.009412  0.114371  0.354850  1
  Sr  Sr13  1  0.009412  0.385629  0.854850  1
  Sr  Sr14  1  0.990588  0.885629  0.645150  1
  Sr  Sr15  1  0.990588  0.614371  0.145150  1
  Sr  Sr16  1  0.542035  0.774537  0.343588  1
  Sr  Sr17  1  0.542035  0.725463  0.843588  1
  Sr  Sr18  1  0.457965  0.225463  0.656412  1
  Sr  Sr19  1  0.457965  0.274537  0.156412  1
  As  As20  1  0.797005  0.657054  0.457961  1
  As  As21  1  0.797005  0.842946  0.957961  1
  As  As22  1  0.202995  0.342946  0.542039  1
  As  As23  1  0.202995  0.157054  0.042039  1
  As  As24  1  0.811926  0.904236  0.539309  1
  As  As25  1  0.811926  0.595764  0.039309  1
  As  As26  1  0.188074  0.095764  0.460691  1
  As  As27  1  0.188074  0.404236  0.960691  1
  As  As28  1  0.692824  0.339621  0.266426  1
  As  As29  1  0.692824  0.160379  0.766426  1
  As  As30  1  0.307176  0.660379  0.733574  1
  As  As31  1  0.307176  0.839621  0.233574  1
  As  As32  1  0.505931  0.295214  0.348140  1
  As  As33  1  0.505931  0.204786  0.848140  1
  As  As34  1  0.494069  0.704786  0.651860  1
  As  As35  1  0.494069  0.795214  0.151860  1
  As  As36  1  0.086396  0.672340  0.342994  1
  As  As37  1  0.086396  0.827660  0.842994  1
  As  As38  1  0.913604  0.327660  0.657006  1
  As  As39  1  0.913604  0.172340  0.157006  1
  H  H40  1  0.984635  0.506755  0.394816  1
  H  H41  1  0.984635  0.993245  0.894816  1
  H  H42  1  0.015365  0.493245  0.605184  1
  H  H43  1  0.015365  0.006755  0.105184  1
  O  O44  1  0.977616  0.567206  0.437799  1
  O  O45  1  0.977616  0.932794  0.937799  1
  O  O46  1  0.022384  0.432794  0.562201  1
  O  O47  1  0.022384  0.067206  0.062201  1
  O  O48  1  0.641948  0.798215  0.429186  1
  O  O49  1  0.641948  0.701785  0.929186  1
  O  O50  1  0.358052  0.201785  0.570814  1
  O  O51  1  0.358052  0.298215  0.070814  1
  O  O52  1  0.671290  0.489203  0.477658  1
  O  O53  1  0.671290  0.010797  0.977658  1
  O  O54  1  0.328710  0.510797  0.522342  1
  O  O55  1  0.328710  0.989203  0.022342  1
  O  O56  1  0.911035  0.795199  0.498704  1
  O  O57  1  0.911035  0.704801  0.998704  1
  O  O58  1  0.088965  0.204801  0.501296  1
  O  O59  1  0.088965  0.295199  0.001296  1
  O  O60  1  0.701452  0.097326  0.520023  1
  O  O61  1  0.701452  0.402674  0.020023  1
  O  O62  1  0.298548  0.902674  0.479977  1
  O  O63  1  0.298548  0.597326  0.979977  1
  O  O64  1  0.010021  0.931865  0.572401  1
  O  O65  1  0.010021  0.568135  0.072401  1
  O  O66  1  0.989979  0.068135  0.427599  1
  O  O67  1  0.989979  0.431865  0.927599  1
  O  O68  1  0.663936  0.759319  0.558455  1
  O  O69  1  0.663936  0.740681  0.058455  1
  O  O70  1  0.336064  0.240681  0.441545  1
  O  O71  1  0.336064  0.259319  0.941545  1
  O  O72  1  0.653293  0.120019  0.366430  1
  O  O73  1  0.653293  0.379981  0.866430  1
  O  O74  1  0.346707  0.879981  0.633570  1
  O  O75  1  0.346707  0.620019  0.133570  1
  O  O76  1  0.507505  0.462888  0.383523  1
  O  O77  1  0.507505  0.037112  0.883523  1
  O  O78  1  0.492495  0.537112  0.616477  1
  O  O79  1  0.492495  0.962888  0.116477  1
  O  O80  1  0.301426  0.204110  0.325799  1
  O  O81  1  0.301426  0.295890  0.825799  1
  O  O82  1  0.698574  0.795890  0.674201  1
  O  O83  1  0.698574  0.704110  0.174201  1
  O  O84  1  0.606356  0.430034  0.311341  1
  O  O85  1  0.606356  0.069966  0.811341  1
  O  O86  1  0.393644  0.569966  0.688659  1
  O  O87  1  0.393644  0.930034  0.188659  1
  O  O88  1  0.494658  0.304774  0.233683  1
  O  O89  1  0.494658  0.195226  0.733683  1
  O  O90  1  0.505342  0.695226  0.766317  1
  O  O91  1  0.505342  0.804774  0.266317  1
  O  O92  1  0.840404  0.500664  0.253231  1
  O  O93  1  0.840404  0.999336  0.753231  1
  O  O94  1  0.159596  0.499336  0.746769  1
  O  O95  1  0.159596  0.000664  0.246769  1
  O  O96  1  0.824715  0.154796  0.284383  1
  O  O97  1  0.824715  0.345204  0.784383  1
  O  O98  1  0.175285  0.845204  0.715617  1
  O  O99  1  0.175285  0.654796  0.215617  1
  O  O100  1  0.887832  0.797186  0.327381  1
  O  O101  1  0.887832  0.702814  0.827381  1
  O  O102  1  0.112168  0.202814  0.672619  1
  O  O103  1  0.112168  0.297186  0.172619  1
  O  O104  1  0.209957  0.614549  0.306168  1
  O  O105  1  0.209957  0.885451  0.806168  1
  O  O106  1  0.790043  0.385451  0.693832  1
  O  O107  1  0.790043  0.114549  0.193832  1
  O  O108  1  0.227030  0.804896  0.377350  1
  O  O109  1  0.227030  0.695104  0.877350  1
  O  O110  1  0.772970  0.195104  0.622650  1
  O  O111  1  0.772970  0.304896  0.122650  1
  O  O112  1  0.028162  0.467206  0.368049  1
  O  O113  1  0.028162  0.032794  0.868049  1
  O  O114  1  0.971838  0.532794  0.631951  1
  O  O115  1  0.971838  0.967206  0.131951  1
