# generated using pymatgen
data_Li2Mn2F7
_symmetry_space_group_name_H-M   'P 1'
_cell_length_a   7.78882300
_cell_length_b   5.22248638
_cell_length_c   13.14981408
_cell_angle_alpha   90.00000000
_cell_angle_beta   97.82089078
_cell_angle_gamma   90.00000000
_symmetry_Int_Tables_number   1
_chemical_formula_structural   Li2Mn2F7
_chemical_formula_sum   'Li8 Mn8 F28'
_cell_volume   529.91983694
_cell_formula_units_Z   4
loop_
 _symmetry_equiv_pos_site_id
 _symmetry_equiv_pos_as_xyz
  1  'x, y, z'
loop_
 _atom_site_type_symbol
 _atom_site_label
 _atom_site_symmetry_multiplicity
 _atom_site_fract_x
 _atom_site_fract_y
 _atom_site_fract_z
 _atom_site_occupancy
  Li  Li0  1  0.853697  0.274137  0.430995  1
  Li  Li1  1  0.773376  0.764177  0.096255  1
  Li  Li2  1  0.721465  0.258586  0.890259  1
  Li  Li3  1  0.603196  0.779725  0.575520  1
  Li  Li4  1  0.396804  0.279725  0.424480  1
  Li  Li5  1  0.278535  0.758586  0.109741  1
  Li  Li6  1  0.226624  0.264177  0.903745  1
  Li  Li7  1  0.146303  0.774137  0.569005  1
  Mn  Mn8  1  0.920504  0.260533  0.679058  1
  Mn  Mn9  1  0.973675  0.764517  0.888153  1
  Mn  Mn10  1  0.582262  0.758378  0.320209  1
  Mn  Mn11  1  0.528823  0.261605  0.112846  1
  Mn  Mn12  1  0.471177  0.761605  0.887154  1
  Mn  Mn13  1  0.417738  0.258378  0.679791  1
  Mn  Mn14  1  0.026325  0.264517  0.111847  1
  Mn  Mn15  1  0.079496  0.760533  0.320942  1
  F  F16  1  0.954894  0.548144  0.599083  1
  F  F17  1  0.020685  0.421608  0.809188  1
  F  F18  1  0.831357  0.599611  0.342571  1
  F  F19  1  0.780427  0.412441  0.123559  1
  F  F20  1  0.823138  0.079699  0.562871  1
  F  F21  1  0.916617  0.090707  0.973785  1
  F  F22  1  0.867912  0.979147  0.762496  1
  F  F23  1  0.649012  0.069266  0.378955  1
  F  F24  1  0.613737  0.909772  0.179708  1
  F  F25  1  0.730772  0.618915  0.919396  1
  F  F26  1  0.667616  0.408094  0.703849  1
  F  F27  1  0.556182  0.579771  0.451308  1
  F  F28  1  0.432532  0.587974  0.028640  1
  F  F29  1  0.492991  0.465684  0.246525  1
  F  F30  1  0.507009  0.965684  0.753475  1
  F  F31  1  0.567468  0.087974  0.971360  1
  F  F32  1  0.443818  0.079771  0.548692  1
  F  F33  1  0.332384  0.908094  0.296151  1
  F  F34  1  0.269228  0.118915  0.080604  1
  F  F35  1  0.386263  0.409772  0.820292  1
  F  F36  1  0.350988  0.569266  0.621045  1
  F  F37  1  0.132088  0.479147  0.237504  1
  F  F38  1  0.083383  0.590707  0.026215  1
  F  F39  1  0.176862  0.579699  0.437129  1
  F  F40  1  0.219573  0.912441  0.876441  1
  F  F41  1  0.168643  0.099611  0.657429  1
  F  F42  1  0.979315  0.921608  0.190812  1
  F  F43  1  0.045106  0.048144  0.400917  1
