# generated using pymatgen
data_Lu2(SO4)3
_symmetry_space_group_name_H-M   'P 1'
_cell_length_a   9.39066101
_cell_length_b   9.39066101
_cell_length_c   9.39066101
_cell_angle_alpha   57.84546157
_cell_angle_beta   57.84546157
_cell_angle_gamma   57.84546157
_symmetry_Int_Tables_number   1
_chemical_formula_structural   Lu2(SO4)3
_chemical_formula_sum   'Lu4 S6 O24'
_cell_volume   556.59879633
_cell_formula_units_Z   2
loop_
 _symmetry_equiv_pos_site_id
 _symmetry_equiv_pos_as_xyz
  1  'x, y, z'
loop_
 _atom_site_type_symbol
 _atom_site_label
 _atom_site_symmetry_multiplicity
 _atom_site_fract_x
 _atom_site_fract_y
 _atom_site_fract_z
 _atom_site_occupancy
  Lu  Lu0  1  0.144046  0.144046  0.144046  1
  Lu  Lu1  1  0.644046  0.644046  0.644046  1
  Lu  Lu2  1  0.355954  0.355954  0.355954  1
  Lu  Lu3  1  0.855954  0.855954  0.855954  1
  S  S4  1  0.037447  0.462553  0.750000  1
  S  S5  1  0.537447  0.250000  0.962553  1
  S  S6  1  0.250000  0.962553  0.537447  1
  S  S7  1  0.750000  0.037447  0.462553  1
  S  S8  1  0.462553  0.750000  0.037447  1
  S  S9  1  0.962553  0.537447  0.250000  1
  O  O10  1  0.273063  0.121075  0.509354  1
  O  O11  1  0.121075  0.509354  0.273063  1
  O  O12  1  0.063936  0.300924  0.909625  1
  O  O13  1  0.009354  0.621075  0.773063  1
  O  O14  1  0.509354  0.273063  0.121075  1
  O  O15  1  0.378925  0.226937  0.990646  1
  O  O16  1  0.090375  0.936064  0.699076  1
  O  O17  1  0.199076  0.436064  0.590375  1
  O  O18  1  0.563936  0.409625  0.800924  1
  O  O19  1  0.699076  0.090375  0.936064  1
  O  O20  1  0.409625  0.800924  0.563936  1
  O  O21  1  0.226937  0.990646  0.378925  1
  O  O22  1  0.773063  0.009354  0.621075  1
  O  O23  1  0.590375  0.199076  0.436064  1
  O  O24  1  0.300924  0.909625  0.063936  1
  O  O25  1  0.436064  0.590375  0.199076  1
  O  O26  1  0.800924  0.563936  0.409625  1
  O  O27  1  0.909625  0.063936  0.300924  1
  O  O28  1  0.621075  0.773063  0.009354  1
  O  O29  1  0.490646  0.726937  0.878925  1
  O  O30  1  0.990646  0.378925  0.226937  1
  O  O31  1  0.936064  0.699076  0.090375  1
  O  O32  1  0.878925  0.490646  0.726937  1
  O  O33  1  0.726937  0.878925  0.490646  1
