# generated using pymatgen
data_LiNiPO4
_symmetry_space_group_name_H-M   'P 1'
_cell_length_a   5.61975985
_cell_length_b   10.55372024
_cell_length_c   9.95603422
_cell_angle_alpha   90.00000000
_cell_angle_beta   91.77423949
_cell_angle_gamma   90.00000000
_symmetry_Int_Tables_number   1
_chemical_formula_structural   LiNiPO4
_chemical_formula_sum   'Li8 Ni8 P8 O32'
_cell_volume   590.20305954
_cell_formula_units_Z   8
loop_
 _symmetry_equiv_pos_site_id
 _symmetry_equiv_pos_as_xyz
  1  'x, y, z'
loop_
 _atom_site_type_symbol
 _atom_site_label
 _atom_site_symmetry_multiplicity
 _atom_site_fract_x
 _atom_site_fract_y
 _atom_site_fract_z
 _atom_site_occupancy
  Li  Li0  1  0.128119  0.858397  0.887065  1
  Li  Li1  1  0.128119  0.641603  0.387065  1
  Li  Li2  1  0.388727  0.336693  0.641621  1
  Li  Li3  1  0.388727  0.163307  0.141621  1
  Li  Li4  1  0.611273  0.836693  0.858379  1
  Li  Li5  1  0.611273  0.663307  0.358379  1
  Li  Li6  1  0.871881  0.358397  0.612935  1
  Li  Li7  1  0.871881  0.141603  0.112935  1
  Ni  Ni8  1  0.119949  0.092725  0.731521  1
  Ni  Ni9  1  0.119949  0.407275  0.231521  1
  Ni  Ni10  1  0.346176  0.623327  0.985736  1
  Ni  Ni11  1  0.346176  0.876673  0.485736  1
  Ni  Ni12  1  0.653824  0.123327  0.514264  1
  Ni  Ni13  1  0.653824  0.376673  0.014264  1
  Ni  Ni14  1  0.880051  0.592725  0.768479  1
  Ni  Ni15  1  0.880051  0.907275  0.268479  1
  P  P16  1  0.124920  0.354266  0.909313  1
  P  P17  1  0.124920  0.145734  0.409313  1
  P  P18  1  0.376740  0.608475  0.661301  1
  P  P19  1  0.376740  0.891525  0.161301  1
  P  P20  1  0.623260  0.108475  0.838699  1
  P  P21  1  0.623260  0.391525  0.338699  1
  P  P22  1  0.875080  0.854266  0.590687  1
  P  P23  1  0.875080  0.645734  0.090687  1
  O  O24  1  0.082503  0.213951  0.544797  1
  O  O25  1  0.104614  0.933833  0.624143  1
  O  O26  1  0.082503  0.286049  0.044797  1
  O  O27  1  0.104614  0.566167  0.124143  1
  O  O28  1  0.164995  0.266686  0.790050  1
  O  O29  1  0.144176  0.526851  0.650263  1
  O  O30  1  0.164995  0.233314  0.290050  1
  O  O31  1  0.144176  0.973149  0.150263  1
  O  O32  1  0.347247  0.441281  0.924098  1
  O  O33  1  0.373434  0.692665  0.791824  1
  O  O34  1  0.347247  0.058719  0.424098  1
  O  O35  1  0.389465  0.692459  0.532485  1
  O  O36  1  0.405700  0.016709  0.833237  1
  O  O37  1  0.373434  0.807335  0.291824  1
  O  O38  1  0.389465  0.807541  0.032485  1
  O  O39  1  0.405700  0.483291  0.333237  1
  O  O40  1  0.594300  0.516709  0.666763  1
  O  O41  1  0.610535  0.192459  0.967515  1
  O  O42  1  0.626566  0.192665  0.708176  1
  O  O43  1  0.594300  0.983291  0.166763  1
  O  O44  1  0.610535  0.307541  0.467515  1
  O  O45  1  0.652753  0.941281  0.575902  1
  O  O46  1  0.626566  0.307335  0.208176  1
  O  O47  1  0.652753  0.558719  0.075902  1
  O  O48  1  0.855824  0.026851  0.849737  1
  O  O49  1  0.835005  0.766686  0.709950  1
  O  O50  1  0.855824  0.473149  0.349737  1
  O  O51  1  0.835005  0.733314  0.209950  1
  O  O52  1  0.895386  0.433833  0.875857  1
  O  O53  1  0.917497  0.713951  0.955203  1
  O  O54  1  0.895386  0.066167  0.375857  1
  O  O55  1  0.917497  0.786049  0.455203  1
