# generated using pymatgen
data_Ga2P3H11O13
_symmetry_space_group_name_H-M   'P 1'
_cell_length_a   7.77610854
_cell_length_b   10.14515000
_cell_length_c   8.18735307
_cell_angle_alpha   90.00000000
_cell_angle_beta   111.41339323
_cell_angle_gamma   90.00000000
_symmetry_Int_Tables_number   1
_chemical_formula_structural   Ga2P3H11O13
_chemical_formula_sum   'Ga4 P6 H22 O26'
_cell_volume   601.31248938
_cell_formula_units_Z   2
loop_
 _symmetry_equiv_pos_site_id
 _symmetry_equiv_pos_as_xyz
  1  'x, y, z'
loop_
 _atom_site_type_symbol
 _atom_site_label
 _atom_site_symmetry_multiplicity
 _atom_site_fract_x
 _atom_site_fract_y
 _atom_site_fract_z
 _atom_site_occupancy
  Ga  Ga0  1  0.065192  0.849501  0.025097  1
  Ga  Ga1  1  0.934808  0.349501  0.974903  1
  Ga  Ga2  1  0.589154  0.577728  0.375993  1
  Ga  Ga3  1  0.410846  0.077728  0.624007  1
  P  P4  1  0.457195  0.877001  0.344538  1
  P  P5  1  0.542805  0.377001  0.655462  1
  P  P6  1  0.250619  0.575269  0.993221  1
  P  P7  1  0.749381  0.075269  0.006779  1
  P  P8  1  0.222811  0.130006  0.921168  1
  P  P9  1  0.777189  0.630006  0.078832  1
  H  H10  1  0.526682  0.891832  0.209986  1
  H  H11  1  0.473318  0.391832  0.790014  1
  H  H12  1  0.379737  0.543674  0.915504  1
  H  H13  1  0.620263  0.043674  0.084496  1
  H  H14  1  0.345695  0.178731  0.082885  1
  H  H15  1  0.654305  0.678731  0.917115  1
  H  H16  1  0.763337  0.907416  0.753837  1
  H  H17  1  0.236663  0.407416  0.246163  1
  H  H18  1  0.164754  0.268394  0.303238  1
  H  H19  1  0.835246  0.768394  0.696762  1
  H  H20  1  0.887567  0.529332  0.668103  1
  H  H21  1  0.112433  0.029332  0.331897  1
  H  H22  1  0.957904  0.613455  0.538847  1
  H  H23  1  0.042096  0.113455  0.461153  1
  H  H24  1  0.732349  0.319964  0.398575  1
  H  H25  1  0.267651  0.819964  0.601425  1
  H  H26  1  0.719699  0.397084  0.223496  1
  H  H27  1  0.280301  0.897084  0.776504  1
  H  H28  1  0.110836  0.688631  0.367057  1
  H  H29  1  0.889164  0.188631  0.632943  1
  H  H30  1  0.262506  0.610878  0.514006  1
  H  H31  1  0.737494  0.110878  0.485994  1
  O  O32  1  0.245170  0.869055  0.264868  1
  O  O33  1  0.754830  0.369055  0.735132  1
  O  O34  1  0.201502  0.980200  0.936961  1
  O  O35  1  0.798498  0.480200  0.063039  1
  O  O36  1  0.206108  0.720825  0.946023  1
  O  O37  1  0.793892  0.220825  0.053977  1
  O  O38  1  0.959473  0.705499  0.122341  1
  O  O39  1  0.040527  0.205499  0.877659  1
  O  O40  1  0.916327  0.983398  0.090597  1
  O  O41  1  0.083673  0.483398  0.909403  1
  O  O42  1  0.866697  0.843352  0.778251  1
  O  O43  1  0.133303  0.343352  0.221749  1
  O  O44  1  0.544019  0.752752  0.449425  1
  O  O45  1  0.455981  0.252752  0.550575  1
  O  O46  1  0.342419  0.547641  0.192303  1
  O  O47  1  0.657581  0.047641  0.807697  1
  O  O48  1  0.310533  0.158371  0.784608  1
  O  O49  1  0.689467  0.658371  0.215392  1
  O  O50  1  0.483059  0.502241  0.540018  1
  O  O51  1  0.516941  0.002241  0.459982  1
  O  O52  1  0.850739  0.599292  0.577248  1
  O  O53  1  0.149261  0.099292  0.422752  1
  O  O54  1  0.668568  0.393458  0.318201  1
  O  O55  1  0.331432  0.893458  0.681799  1
  O  O56  1  0.155512  0.669320  0.494614  1
  O  O57  1  0.844488  0.169320  0.505386  1
