# generated using pymatgen
data_Li2FeSiO5
_symmetry_space_group_name_H-M   'P 1'
_cell_length_a   6.43703564
_cell_length_b   6.43703564
_cell_length_c   4.49824102
_cell_angle_alpha   90.00000000
_cell_angle_beta   90.00000000
_cell_angle_gamma   90.00000000
_symmetry_Int_Tables_number   1
_chemical_formula_structural   Li2FeSiO5
_chemical_formula_sum   'Li4 Fe2 Si2 O10'
_cell_volume   186.38654115
_cell_formula_units_Z   2
loop_
 _symmetry_equiv_pos_site_id
 _symmetry_equiv_pos_as_xyz
  1  'x, y, z'
loop_
 _atom_site_type_symbol
 _atom_site_label
 _atom_site_symmetry_multiplicity
 _atom_site_fract_x
 _atom_site_fract_y
 _atom_site_fract_z
 _atom_site_occupancy
  Li  Li0  1  0.750000  0.250000  0.000000  1
  Li  Li1  1  0.250000  0.250000  0.000000  1
  Li  Li2  1  0.250000  0.750000  0.000000  1
  Li  Li3  1  0.750000  0.750000  0.000000  1
  Fe  Fe4  1  0.000000  0.500000  0.609133  1
  Fe  Fe5  1  0.500000  0.000000  0.390867  1
  Si  Si6  1  0.500000  0.500000  0.500000  1
  Si  Si7  1  0.000000  0.000000  0.500000  1
  O  O8  1  0.500000  0.297351  0.278709  1
  O  O9  1  0.000000  0.500000  0.217525  1
  O  O10  1  0.297351  0.500000  0.721291  1
  O  O11  1  0.702649  0.500000  0.721291  1
  O  O12  1  0.500000  0.702649  0.278709  1
  O  O13  1  0.000000  0.797351  0.721291  1
  O  O14  1  0.797351  0.000000  0.278709  1
  O  O15  1  0.202649  0.000000  0.278709  1
  O  O16  1  0.500000  0.000000  0.782475  1
  O  O17  1  0.000000  0.202649  0.721291  1
