# generated using pymatgen
data_Li2V5CoO12
_symmetry_space_group_name_H-M   'P 1'
_cell_length_a   6.91783265
_cell_length_b   6.91783265
_cell_length_c   5.70045614
_cell_angle_alpha   73.32229478
_cell_angle_beta   106.67770522
_cell_angle_gamma   99.97749609
_symmetry_Int_Tables_number   1
_chemical_formula_structural   Li2V5CoO12
_chemical_formula_sum   'Li2 V5 Co1 O12'
_cell_volume   249.10349911
_cell_formula_units_Z   1
loop_
 _symmetry_equiv_pos_site_id
 _symmetry_equiv_pos_as_xyz
  1  'x, y, z'
loop_
 _atom_site_type_symbol
 _atom_site_label
 _atom_site_symmetry_multiplicity
 _atom_site_fract_x
 _atom_site_fract_y
 _atom_site_fract_z
 _atom_site_occupancy
  Li  Li0  1  0.728839  0.728839  0.500000  1
  Li  Li1  1  0.255103  0.255103  0.000000  1
  V  V2  1  0.079474  0.079474  0.500000  1
  V  V3  1  0.386654  0.804552  0.007833  1
  V  V4  1  0.181794  0.610629  0.491867  1
  V  V5  1  0.804552  0.386654  0.992167  1
  V  V6  1  0.610629  0.181794  0.508133  1
  Co  Co7  1  0.911287  0.911287  0.000000  1
  O  O8  1  0.201815  0.977553  0.900150  1
  O  O9  1  0.620222  0.935132  0.993264  1
  O  O10  1  0.003037  0.807506  0.398229  1
  O  O11  1  0.331165  0.626498  0.827812  1
  O  O12  1  0.935132  0.620222  0.006736  1
  O  O13  1  0.404568  0.683900  0.330500  1
  O  O14  1  0.626498  0.331165  0.172188  1
  O  O15  1  0.104812  0.345460  0.570068  1
  O  O16  1  0.683900  0.404568  0.669500  1
  O  O17  1  0.977553  0.201815  0.099850  1
  O  O18  1  0.345460  0.104812  0.429932  1
  O  O19  1  0.807506  0.003037  0.601771  1
