# generated using pymatgen
data_Li3B5(HO5)2
_symmetry_space_group_name_H-M   'P 1'
_cell_length_a   6.92498351
_cell_length_b   6.92498351
_cell_length_c   14.68827544
_cell_angle_alpha   90.00000000
_cell_angle_beta   90.00000000
_cell_angle_gamma   90.00000000
_symmetry_Int_Tables_number   1
_chemical_formula_structural   Li3B5(HO5)2
_chemical_formula_sum   'Li12 B20 H8 O40'
_cell_volume   704.38207430
_cell_formula_units_Z   4
loop_
 _symmetry_equiv_pos_site_id
 _symmetry_equiv_pos_as_xyz
  1  'x, y, z'
loop_
 _atom_site_type_symbol
 _atom_site_label
 _atom_site_symmetry_multiplicity
 _atom_site_fract_x
 _atom_site_fract_y
 _atom_site_fract_z
 _atom_site_occupancy
  Li  Li0  1  0.632110  0.349351  0.343603  1
  Li  Li1  1  0.367890  0.650649  0.843603  1
  Li  Li2  1  0.849351  0.867890  0.093603  1
  Li  Li3  1  0.150649  0.132110  0.593603  1
  Li  Li4  1  0.650649  0.367890  0.156397  1
  Li  Li5  1  0.349351  0.632110  0.656397  1
  Li  Li6  1  0.867890  0.849351  0.906397  1
  Li  Li7  1  0.132110  0.150649  0.406397  1
  Li  Li8  1  0.804849  0.195151  0.750000  1
  Li  Li9  1  0.195151  0.804849  0.250000  1
  Li  Li10  1  0.695151  0.695151  0.500000  1
  Li  Li11  1  0.304849  0.304849  0.000000  1
  B  B12  1  0.745422  0.238223  0.522156  1
  B  B13  1  0.254578  0.761777  0.022156  1
  B  B14  1  0.738223  0.754578  0.272156  1
  B  B15  1  0.261777  0.245422  0.772156  1
  B  B16  1  0.761777  0.254578  0.977844  1
  B  B17  1  0.238223  0.745422  0.477844  1
  B  B18  1  0.754578  0.738223  0.727844  1
  B  B19  1  0.245422  0.261777  0.227844  1
  B  B20  1  0.505719  0.244732  0.642643  1
  B  B21  1  0.494281  0.755268  0.142643  1
  B  B22  1  0.744732  0.994281  0.392643  1
  B  B23  1  0.255268  0.005719  0.892643  1
  B  B24  1  0.755268  0.494281  0.857357  1
  B  B25  1  0.244732  0.505719  0.357357  1
  B  B26  1  0.994281  0.744732  0.607357  1
  B  B27  1  0.005719  0.255268  0.107357  1
  B  B28  1  0.062867  0.937133  0.750000  1
  B  B29  1  0.937133  0.062867  0.250000  1
  B  B30  1  0.437133  0.437133  0.500000  1
  B  B31  1  0.562867  0.562867  0.000000  1
  H  H32  1  0.900475  0.509031  0.267246  1
  H  H33  1  0.099525  0.490969  0.767246  1
  H  H34  1  0.009031  0.599525  0.017246  1
  H  H35  1  0.990969  0.400475  0.517246  1
  H  H36  1  0.490969  0.099525  0.232754  1
  H  H37  1  0.509031  0.900475  0.732754  1
  H  H38  1  0.599525  0.009031  0.982754  1
  H  H39  1  0.400475  0.990969  0.482754  1
  O  O40  1  0.642985  0.403244  0.480623  1
  O  O41  1  0.357015  0.596756  0.980623  1
  O  O42  1  0.903244  0.857015  0.230623  1
  O  O43  1  0.096756  0.142985  0.730623  1
  O  O44  1  0.596756  0.357015  0.019377  1
  O  O45  1  0.403244  0.642985  0.519377  1
  O  O46  1  0.857015  0.903244  0.769377  1
  O  O47  1  0.142985  0.096756  0.269377  1
  O  O48  1  0.687596  0.050674  0.478033  1
  O  O49  1  0.312404  0.949326  0.978033  1
  O  O50  1  0.550674  0.812404  0.228033  1
  O  O51  1  0.449326  0.187596  0.728033  1
  O  O52  1  0.949326  0.312404  0.021967  1
  O  O53  1  0.050674  0.687596  0.521967  1
  O  O54  1  0.812404  0.550674  0.771967  1
  O  O55  1  0.187596  0.449326  0.271967  1
  O  O56  1  0.957038  0.262632  0.512327  1
  O  O57  1  0.042962  0.737368  0.012327  1
  O  O58  1  0.762632  0.542962  0.262327  1
  O  O59  1  0.237368  0.457038  0.762327  1
  O  O60  1  0.737368  0.042962  0.987673  1
  O  O61  1  0.262632  0.957038  0.487673  1
  O  O62  1  0.542962  0.762632  0.737673  1
  O  O63  1  0.457038  0.237368  0.237673  1
  O  O64  1  0.824507  0.126554  0.332117  1
  O  O65  1  0.175493  0.873446  0.832117  1
  O  O66  1  0.626554  0.675493  0.082117  1
  O  O67  1  0.373446  0.324507  0.582117  1
  O  O68  1  0.873446  0.175493  0.167883  1
  O  O69  1  0.126554  0.824507  0.667883  1
  O  O70  1  0.675493  0.626554  0.917883  1
  O  O71  1  0.324507  0.373446  0.417883  1
  O  O72  1  0.695100  0.219187  0.619912  1
  O  O73  1  0.304900  0.780813  0.119912  1
  O  O74  1  0.719187  0.804900  0.369912  1
  O  O75  1  0.280813  0.195100  0.869912  1
  O  O76  1  0.780813  0.304900  0.880088  1
  O  O77  1  0.219187  0.695100  0.380088  1
  O  O78  1  0.804900  0.719187  0.630088  1
  O  O79  1  0.195100  0.280813  0.130088  1
