# generated using pymatgen
data_CrB3(HO3)3
_symmetry_space_group_name_H-M   'P 1'
_cell_length_a   9.31284394
_cell_length_b   11.76462115
_cell_length_c   14.27438186
_cell_angle_alpha   90.00000000
_cell_angle_beta   90.00000000
_cell_angle_gamma   90.00000000
_symmetry_Int_Tables_number   1
_chemical_formula_structural   CrB3(HO3)3
_chemical_formula_sum   'Cr8 B24 H24 O72'
_cell_volume   1563.93097848
_cell_formula_units_Z   8
loop_
 _symmetry_equiv_pos_site_id
 _symmetry_equiv_pos_as_xyz
  1  'x, y, z'
loop_
 _atom_site_type_symbol
 _atom_site_label
 _atom_site_symmetry_multiplicity
 _atom_site_fract_x
 _atom_site_fract_y
 _atom_site_fract_z
 _atom_site_occupancy
  Cr  Cr0  1  0.656302  0.764490  0.324850  1
  Cr  Cr1  1  0.343698  0.764490  0.824850  1
  Cr  Cr2  1  0.843698  0.735510  0.824850  1
  Cr  Cr3  1  0.156302  0.735510  0.324850  1
  Cr  Cr4  1  0.843698  0.264490  0.675150  1
  Cr  Cr5  1  0.156302  0.264490  0.175150  1
  Cr  Cr6  1  0.656302  0.235510  0.175150  1
  Cr  Cr7  1  0.343698  0.235510  0.675150  1
  B  B8  1  0.033615  0.852108  0.580703  1
  B  B9  1  0.966385  0.852108  0.080703  1
  B  B10  1  0.467425  0.855428  0.074306  1
  B  B11  1  0.532575  0.855428  0.574306  1
  B  B12  1  0.090622  0.754363  0.950230  1
  B  B13  1  0.909378  0.754363  0.450230  1
  B  B14  1  0.590622  0.745637  0.950230  1
  B  B15  1  0.409378  0.745637  0.450230  1
  B  B16  1  0.967425  0.644572  0.074306  1
  B  B17  1  0.032575  0.644572  0.574306  1
  B  B18  1  0.466385  0.647892  0.080703  1
  B  B19  1  0.533615  0.647892  0.580703  1
  B  B20  1  0.533615  0.352108  0.919297  1
  B  B21  1  0.466385  0.352108  0.419297  1
  B  B22  1  0.967425  0.355428  0.425694  1
  B  B23  1  0.032575  0.355428  0.925694  1
  B  B24  1  0.590622  0.254363  0.549770  1
  B  B25  1  0.409378  0.254363  0.049770  1
  B  B26  1  0.909378  0.245637  0.049770  1
  B  B27  1  0.090622  0.245637  0.549770  1
  B  B28  1  0.532575  0.144572  0.925694  1
  B  B29  1  0.467425  0.144572  0.425694  1
  B  B30  1  0.966385  0.147892  0.419297  1
  B  B31  1  0.033615  0.147892  0.919297  1
  H  H32  1  0.935771  0.016754  0.086860  1
  H  H33  1  0.064229  0.016754  0.586860  1
  H  H34  1  0.437331  0.977408  0.422535  1
  H  H35  1  0.562669  0.977408  0.922535  1
  H  H36  1  0.703455  0.796126  0.694542  1
  H  H37  1  0.296545  0.796126  0.194542  1
  H  H38  1  0.796545  0.703874  0.194542  1
  H  H39  1  0.203455  0.703874  0.694542  1
  H  H40  1  0.937331  0.522592  0.422535  1
  H  H41  1  0.062669  0.522592  0.922535  1
  H  H42  1  0.435771  0.483246  0.086860  1
  H  H43  1  0.564229  0.483246  0.586860  1
  H  H44  1  0.564229  0.516754  0.913140  1
  H  H45  1  0.435771  0.516754  0.413140  1
  H  H46  1  0.937331  0.477408  0.077465  1
  H  H47  1  0.062669  0.477408  0.577465  1
  H  H48  1  0.203455  0.296126  0.805458  1
  H  H49  1  0.796545  0.296126  0.305458  1
  H  H50  1  0.703455  0.203874  0.805458  1
  H  H51  1  0.296545  0.203874  0.305458  1
  H  H52  1  0.562669  0.022592  0.577465  1
  H  H53  1  0.437331  0.022592  0.077465  1
  H  H54  1  0.935771  0.983246  0.413140  1
  H  H55  1  0.064229  0.983246  0.913140  1
  O  O56  1  0.582291  0.952276  0.612972  1
  O  O57  1  0.417709  0.952276  0.112972  1
  O  O58  1  0.913688  0.946870  0.121607  1
  O  O59  1  0.086312  0.946870  0.621607  1
  O  O60  1  0.671518  0.891091  0.289404  1
  O  O61  1  0.328482  0.891091  0.789404  1
  O  O62  1  0.054623  0.854669  0.002561  1
  O  O63  1  0.945377  0.854669  0.502561  1
  O  O64  1  0.449869  0.851668  0.493941  1
  O  O65  1  0.550131  0.851668  0.993941  1
  O  O66  1  0.218683  0.824599  0.238623  1
  O  O67  1  0.781317  0.824599  0.738623  1
  O  O68  1  0.983715  0.764901  0.353548  1
  O  O69  1  0.016285  0.764901  0.853548  1
  O  O70  1  0.753821  0.749419  0.425409  1
  O  O71  1  0.246179  0.749419  0.925409  1
  O  O72  1  0.572338  0.753962  0.619459  1
  O  O73  1  0.427662  0.753962  0.119459  1
  O  O74  1  0.927662  0.746038  0.119459  1
  O  O75  1  0.072338  0.746038  0.619459  1
  O  O76  1  0.253821  0.750581  0.425409  1
  O  O77  1  0.746179  0.750581  0.925409  1
  O  O78  1  0.516285  0.735099  0.853548  1
  O  O79  1  0.483715  0.735099  0.353548  1
  O  O80  1  0.718683  0.675401  0.238623  1
  O  O81  1  0.281317  0.675401  0.738623  1
  O  O82  1  0.949869  0.648332  0.493941  1
  O  O83  1  0.050131  0.648332  0.993941  1
  O  O84  1  0.445377  0.645331  0.502561  1
  O  O85  1  0.554623  0.645331  0.002561  1
  O  O86  1  0.171518  0.608909  0.289404  1
  O  O87  1  0.828482  0.608909  0.789404  1
  O  O88  1  0.413688  0.553130  0.121607  1
  O  O89  1  0.586312  0.553130  0.621607  1
  O  O90  1  0.917709  0.547724  0.112972  1
  O  O91  1  0.082291  0.547724  0.612972  1
  O  O92  1  0.917709  0.452276  0.387028  1
  O  O93  1  0.082291  0.452276  0.887028  1
  O  O94  1  0.413688  0.446870  0.378393  1
  O  O95  1  0.586312  0.446870  0.878393  1
  O  O96  1  0.171518  0.391091  0.210596  1
  O  O97  1  0.828482  0.391091  0.710596  1
  O  O98  1  0.554623  0.354669  0.497439  1
  O  O99  1  0.445377  0.354669  0.997439  1
  O  O100  1  0.949869  0.351668  0.006059  1
  O  O101  1  0.050131  0.351668  0.506059  1
  O  O102  1  0.718683  0.324599  0.261377  1
  O  O103  1  0.281317  0.324599  0.761377  1
  O  O104  1  0.516285  0.264901  0.646452  1
  O  O105  1  0.483715  0.264901  0.146452  1
  O  O106  1  0.746179  0.249419  0.574591  1
  O  O107  1  0.253821  0.249419  0.074591  1
  O  O108  1  0.072338  0.253962  0.880541  1
  O  O109  1  0.927662  0.253962  0.380541  1
  O  O110  1  0.572338  0.246038  0.880541  1
  O  O111  1  0.427662  0.246038  0.380541  1
  O  O112  1  0.753821  0.250581  0.074591  1
  O  O113  1  0.246179  0.250581  0.574591  1
  O  O114  1  0.983715  0.235099  0.146452  1
  O  O115  1  0.016285  0.235099  0.646452  1
  O  O116  1  0.781317  0.175401  0.761377  1
  O  O117  1  0.218683  0.175401  0.261377  1
  O  O118  1  0.550131  0.148332  0.506059  1
  O  O119  1  0.449869  0.148332  0.006059  1
  O  O120  1  0.945377  0.145331  0.997439  1
  O  O121  1  0.054623  0.145331  0.497439  1
  O  O122  1  0.671518  0.108909  0.210596  1
  O  O123  1  0.328482  0.108909  0.710596  1
  O  O124  1  0.913688  0.053130  0.378393  1
  O  O125  1  0.086312  0.053130  0.878393  1
  O  O126  1  0.582291  0.047724  0.887028  1
  O  O127  1  0.417709  0.047724  0.387028  1
