# generated using pymatgen
data_Li2MnF6
_symmetry_space_group_name_H-M   'P 1'
_cell_length_a   4.92996938
_cell_length_b   4.92996938
_cell_length_c   4.43567478
_cell_angle_alpha   90.00000000
_cell_angle_beta   90.00000000
_cell_angle_gamma   120.00000000
_symmetry_Int_Tables_number   1
_chemical_formula_structural   Li2MnF6
_chemical_formula_sum   'Li2 Mn1 F6'
_cell_volume   93.36385410
_cell_formula_units_Z   1
loop_
 _symmetry_equiv_pos_site_id
 _symmetry_equiv_pos_as_xyz
  1  'x, y, z'
loop_
 _atom_site_type_symbol
 _atom_site_label
 _atom_site_symmetry_multiplicity
 _atom_site_fract_x
 _atom_site_fract_y
 _atom_site_fract_z
 _atom_site_occupancy
  Li  Li0  1  0.333333  0.666667  0.500000  1
  Li  Li1  1  0.666667  0.333333  0.500000  1
  Mn  Mn2  1  0.000000  0.000000  0.000000  1
  F  F3  1  0.000000  0.692123  0.240255  1
  F  F4  1  0.000000  0.307877  0.759745  1
  F  F5  1  0.307877  0.307877  0.240255  1
  F  F6  1  0.307877  0.000000  0.759745  1
  F  F7  1  0.692123  0.692123  0.759745  1
  F  F8  1  0.692123  0.000000  0.240255  1
