# generated using pymatgen
data_LiMnP2O7
_symmetry_space_group_name_H-M   'P 1'
_cell_length_a   6.65761943
_cell_length_b   11.40752292
_cell_length_c   7.94901040
_cell_angle_alpha   90.00000000
_cell_angle_beta   119.09854972
_cell_angle_gamma   90.00000000
_symmetry_Int_Tables_number   1
_chemical_formula_structural   LiMnP2O7
_chemical_formula_sum   'Li4 Mn4 P8 O28'
_cell_volume   527.50640094
_cell_formula_units_Z   4
loop_
 _symmetry_equiv_pos_site_id
 _symmetry_equiv_pos_as_xyz
  1  'x, y, z'
loop_
 _atom_site_type_symbol
 _atom_site_label
 _atom_site_symmetry_multiplicity
 _atom_site_fract_x
 _atom_site_fract_y
 _atom_site_fract_z
 _atom_site_occupancy
  Li  Li0  1  0.265023  0.089253  0.738564  1
  Li  Li1  1  0.265023  0.410747  0.238564  1
  Li  Li2  1  0.734977  0.589253  0.761436  1
  Li  Li3  1  0.734977  0.910747  0.261436  1
  Mn  Mn4  1  0.448590  0.708739  0.901083  1
  Mn  Mn5  1  0.448590  0.791261  0.401083  1
  Mn  Mn6  1  0.551410  0.208739  0.598917  1
  Mn  Mn7  1  0.551410  0.291261  0.098917  1
  P  P8  1  0.012007  0.350981  0.789634  1
  P  P9  1  0.012007  0.149019  0.289634  1
  P  P10  1  0.369000  0.413166  0.690307  1
  P  P11  1  0.369000  0.086834  0.190307  1
  P  P12  1  0.631000  0.913166  0.809693  1
  P  P13  1  0.631000  0.586834  0.309693  1
  P  P14  1  0.987993  0.850981  0.710366  1
  P  P15  1  0.987993  0.649019  0.210366  1
  O  O16  1  0.880448  0.233813  0.711499  1
  O  O17  1  0.227457  0.334197  0.991558  1
  O  O18  1  0.132206  0.947069  0.703089  1
  O  O19  1  0.108553  0.383576  0.643204  1
  O  O20  1  0.880448  0.266187  0.211499  1
  O  O21  1  0.227457  0.165803  0.491558  1
  O  O22  1  0.391948  0.117275  0.013897  1
  O  O23  1  0.132206  0.552931  0.203089  1
  O  O24  1  0.108553  0.116424  0.143204  1
  O  O25  1  0.518339  0.313063  0.836405  1
  O  O26  1  0.391948  0.382725  0.513897  1
  O  O27  1  0.424419  0.537899  0.762881  1
  O  O28  1  0.575581  0.037899  0.737119  1
  O  O29  1  0.481661  0.813063  0.663595  1
  O  O30  1  0.518339  0.186937  0.336405  1
  O  O31  1  0.424419  0.962101  0.262881  1
  O  O32  1  0.575581  0.462101  0.237119  1
  O  O33  1  0.608052  0.617275  0.486103  1
  O  O34  1  0.481661  0.686937  0.163595  1
  O  O35  1  0.891447  0.883576  0.856796  1
  O  O36  1  0.867794  0.447069  0.796911  1
  O  O37  1  0.608052  0.882725  0.986103  1
  O  O38  1  0.772543  0.834197  0.508442  1
  O  O39  1  0.119552  0.733813  0.788501  1
  O  O40  1  0.891447  0.616424  0.356796  1
  O  O41  1  0.867794  0.052931  0.296911  1
  O  O42  1  0.772543  0.665803  0.008442  1
  O  O43  1  0.119552  0.766187  0.288501  1
