# generated using pymatgen
data_Li4TiO4
_symmetry_space_group_name_H-M   'P 1'
_cell_length_a   9.20675571
_cell_length_b   9.54164582
_cell_length_c   9.31037710
_cell_angle_alpha   90.00000000
_cell_angle_beta   90.64750512
_cell_angle_gamma   90.00000000
_symmetry_Int_Tables_number   1
_chemical_formula_structural   Li4TiO4
_chemical_formula_sum   'Li32 Ti8 O32'
_cell_volume   817.84207573
_cell_formula_units_Z   8
loop_
 _symmetry_equiv_pos_site_id
 _symmetry_equiv_pos_as_xyz
  1  'x, y, z'
loop_
 _atom_site_type_symbol
 _atom_site_label
 _atom_site_symmetry_multiplicity
 _atom_site_fract_x
 _atom_site_fract_y
 _atom_site_fract_z
 _atom_site_occupancy
  Li  Li0  1  0.157159  0.139285  0.391151  1
  Li  Li1  1  0.157159  0.860715  0.891151  1
  Li  Li2  1  0.211072  0.397722  0.918825  1
  Li  Li3  1  0.211072  0.602278  0.418825  1
  Li  Li4  1  0.366056  0.888818  0.096452  1
  Li  Li5  1  0.366056  0.111182  0.596452  1
  Li  Li6  1  0.351964  0.118655  0.853947  1
  Li  Li7  1  0.351964  0.881345  0.353947  1
  Li  Li8  1  0.354201  0.350987  0.320676  1
  Li  Li9  1  0.354201  0.649013  0.820676  1
  Li  Li10  1  0.403042  0.142999  0.127219  1
  Li  Li11  1  0.403042  0.857001  0.627219  1
  Li  Li12  1  0.551824  0.640613  0.381630  1
  Li  Li13  1  0.551824  0.359387  0.881630  1
  Li  Li14  1  0.644657  0.160274  0.681526  1
  Li  Li15  1  0.644657  0.839726  0.181526  1
  Li  Li16  1  0.630581  0.600124  0.633718  1
  Li  Li17  1  0.630581  0.399876  0.133718  1
  Li  Li18  1  0.642737  0.622947  0.905748  1
  Li  Li19  1  0.642737  0.377053  0.405748  1
  Li  Li20  1  0.664158  0.133195  0.102954  1
  Li  Li21  1  0.664158  0.866805  0.602954  1
  Li  Li22  1  0.907124  0.644675  0.080313  1
  Li  Li23  1  0.907124  0.355325  0.580313  1
  Li  Li24  1  0.869802  0.879268  0.399073  1
  Li  Li25  1  0.869802  0.120732  0.899073  1
  Li  Li26  1  0.897755  0.099572  0.638466  1
  Li  Li27  1  0.897755  0.900428  0.138466  1
  Li  Li28  1  0.945665  0.616099  0.681868  1
  Li  Li29  1  0.945665  0.383901  0.181868  1
  Li  Li30  1  0.900111  0.129652  0.359643  1
  Li  Li31  1  0.900111  0.870348  0.859643  1
  Ti  Ti32  1  0.128063  0.110100  0.106152  1
  Ti  Ti33  1  0.128063  0.889900  0.606152  1
  Ti  Ti34  1  0.378276  0.621740  0.119532  1
  Ti  Ti35  1  0.378276  0.378260  0.619532  1
  Ti  Ti36  1  0.620678  0.102514  0.384053  1
  Ti  Ti37  1  0.620678  0.897486  0.884053  1
  Ti  Ti38  1  0.854730  0.613137  0.380482  1
  Ti  Ti39  1  0.854730  0.386863  0.880482  1
  O  O40  1  0.007634  0.009226  0.495601  1
  O  O41  1  0.007634  0.990774  0.995601  1
  O  O42  1  0.023785  0.209787  0.234891  1
  O  O43  1  0.023785  0.790213  0.734891  1
  O  O44  1  0.253792  0.215397  0.001234  1
  O  O45  1  0.253792  0.784603  0.501234  1
  O  O46  1  0.262968  0.019512  0.220183  1
  O  O47  1  0.262968  0.980488  0.720183  1
  O  O48  1  0.280638  0.516244  0.244434  1
  O  O49  1  0.280638  0.483756  0.744434  1
  O  O50  1  0.281527  0.736553  0.991646  1
  O  O51  1  0.281527  0.263447  0.491646  1
  O  O52  1  0.473895  0.758546  0.231090  1
  O  O53  1  0.473895  0.241454  0.731090  1
  O  O54  1  0.505680  0.485536  0.509633  1
  O  O55  1  0.505680  0.514464  0.009633  1
  O  O56  1  0.513864  0.008521  0.003428  1
  O  O57  1  0.513864  0.991479  0.503428  1
  O  O58  1  0.538164  0.232607  0.260666  1
  O  O59  1  0.538164  0.767393  0.760666  1
  O  O60  1  0.746649  0.204514  0.495914  1
  O  O61  1  0.746649  0.795486  0.995913  1
  O  O62  1  0.744974  0.003914  0.268300  1
  O  O63  1  0.744974  0.996086  0.768299  1
  O  O64  1  0.753635  0.484388  0.273439  1
  O  O65  1  0.753635  0.515612  0.773439  1
  O  O66  1  0.729989  0.722314  0.487822  1
  O  O67  1  0.729989  0.277686  0.987822  1
  O  O68  1  0.930958  0.743563  0.258988  1
  O  O69  1  0.930958  0.256437  0.758988  1
  O  O70  1  0.979191  0.476318  0.002779  1
  O  O71  1  0.979191  0.523682  0.502779  1
