# generated using pymatgen
data_K2Cr2O7
_symmetry_space_group_name_H-M   'P 1'
_cell_length_a   8.69685898
_cell_length_b   8.69685898
_cell_length_c   8.14085825
_cell_angle_alpha   86.33989854
_cell_angle_beta   93.66010146
_cell_angle_gamma   134.56123910
_symmetry_Int_Tables_number   1
_chemical_formula_structural   K2Cr2O7
_chemical_formula_sum   'K4 Cr4 O14'
_cell_volume   437.66105399
_cell_formula_units_Z   2
loop_
 _symmetry_equiv_pos_site_id
 _symmetry_equiv_pos_as_xyz
  1  'x, y, z'
loop_
 _atom_site_type_symbol
 _atom_site_label
 _atom_site_symmetry_multiplicity
 _atom_site_fract_x
 _atom_site_fract_y
 _atom_site_fract_z
 _atom_site_occupancy
  K  K0  1  0.353958  0.646042  0.239692  1
  K  K1  1  0.631577  0.368423  0.286070  1
  K  K2  1  0.368423  0.631577  0.713930  1
  K  K3  1  0.646042  0.353958  0.760308  1
  Cr  Cr4  1  0.864028  0.135972  0.565667  1
  Cr  Cr5  1  0.135972  0.864028  0.434333  1
  Cr  Cr6  1  0.870662  0.129338  0.997843  1
  Cr  Cr7  1  0.129338  0.870662  0.002157  1
  O  O8  1  0.300571  0.104754  0.511760  1
  O  O9  1  0.699429  0.895246  0.488240  1
  O  O10  1  0.895246  0.699429  0.511760  1
  O  O11  1  0.285600  0.114495  0.922448  1
  O  O12  1  0.113164  0.886836  0.218141  1
  O  O13  1  0.238287  0.761713  0.466659  1
  O  O14  1  0.714400  0.885505  0.077552  1
  O  O15  1  0.886836  0.113164  0.781859  1
  O  O16  1  0.885505  0.714400  0.922448  1
  O  O17  1  0.761713  0.238287  0.533341  1
  O  O18  1  0.770052  0.229948  0.025995  1
  O  O19  1  0.104754  0.300571  0.488240  1
  O  O20  1  0.114495  0.285600  0.077552  1
  O  O21  1  0.229948  0.770052  0.974005  1
