# generated using pymatgen
data_LiVF6
_symmetry_space_group_name_H-M   'P 1'
_cell_length_a   5.70561125
_cell_length_b   5.70561125
_cell_length_c   4.84209403
_cell_angle_alpha   90.00000000
_cell_angle_beta   90.00000000
_cell_angle_gamma   120.00000000
_symmetry_Int_Tables_number   1
_chemical_formula_structural   LiVF6
_chemical_formula_sum   'Li1 V1 F6'
_cell_volume   136.51117540
_cell_formula_units_Z   1
loop_
 _symmetry_equiv_pos_site_id
 _symmetry_equiv_pos_as_xyz
  1  'x, y, z'
loop_
 _atom_site_type_symbol
 _atom_site_label
 _atom_site_symmetry_multiplicity
 _atom_site_fract_x
 _atom_site_fract_y
 _atom_site_fract_z
 _atom_site_occupancy
  Li  Li0  1  0.000000  0.000000  0.700109  1
  V  V1  1  0.666667  0.333333  0.014503  1
  F  F2  1  0.971971  0.485986  0.217430  1
  F  F3  1  0.514014  0.028029  0.217430  1
  F  F4  1  0.817362  0.182638  0.783552  1
  F  F5  1  0.514014  0.485986  0.217430  1
  F  F6  1  0.817362  0.634724  0.783552  1
  F  F7  1  0.365276  0.182638  0.783552  1
