# generated using pymatgen
data_Li3VP2HO8
_symmetry_space_group_name_H-M   'P 1'
_cell_length_a   5.11277263
_cell_length_b   5.14904408
_cell_length_c   6.26769415
_cell_angle_alpha   90.18648272
_cell_angle_beta   90.57820301
_cell_angle_gamma   114.83028450
_symmetry_Int_Tables_number   1
_chemical_formula_structural   Li3VP2HO8
_chemical_formula_sum   'Li3 V1 P2 H1 O8'
_cell_volume   149.73634575
_cell_formula_units_Z   1
loop_
 _symmetry_equiv_pos_site_id
 _symmetry_equiv_pos_as_xyz
  1  'x, y, z'
loop_
 _atom_site_type_symbol
 _atom_site_label
 _atom_site_symmetry_multiplicity
 _atom_site_fract_x
 _atom_site_fract_y
 _atom_site_fract_z
 _atom_site_occupancy
  Li  Li0  1  0.633796  0.283132  0.773164  1
  Li  Li1  1  0.000000  0.000000  0.500000  1
  Li  Li2  1  0.366204  0.716868  0.226836  1
  V  V3  1  0.000000  0.000000  0.000000  1
  P  P4  1  0.640247  0.359425  0.252365  1
  P  P5  1  0.359753  0.640575  0.747635  1
  H  H6  1  0.000000  0.500000  0.500000  1
  O  O7  1  0.753524  0.243156  0.066883  1
  O  O8  1  0.768440  0.300078  0.469096  1
  O  O9  1  0.306971  0.213404  0.260418  1
  O  O10  1  0.256690  0.310285  0.763417  1
  O  O11  1  0.743310  0.689715  0.236583  1
  O  O12  1  0.693029  0.786596  0.739582  1
  O  O13  1  0.231560  0.699922  0.530904  1
  O  O14  1  0.246476  0.756844  0.933117  1
