# generated using pymatgen
data_Sr2HfO4
_symmetry_space_group_name_H-M   'P 1'
_cell_length_a   5.83787683
_cell_length_b   5.83787683
_cell_length_c   12.67471839
_cell_angle_alpha   90.00000000
_cell_angle_beta   90.00000000
_cell_angle_gamma   90.00000000
_symmetry_Int_Tables_number   1
_chemical_formula_structural   Sr2HfO4
_chemical_formula_sum   'Sr8 Hf4 O16'
_cell_volume   431.96461632
_cell_formula_units_Z   4
loop_
 _symmetry_equiv_pos_site_id
 _symmetry_equiv_pos_as_xyz
  1  'x, y, z'
loop_
 _atom_site_type_symbol
 _atom_site_label
 _atom_site_symmetry_multiplicity
 _atom_site_fract_x
 _atom_site_fract_y
 _atom_site_fract_z
 _atom_site_occupancy
  Sr  Sr0  1  0.236448  0.736448  0.398292  1
  Sr  Sr1  1  0.763552  0.736448  0.898292  1
  Sr  Sr2  1  0.236448  0.263552  0.898292  1
  Sr  Sr3  1  0.763552  0.263552  0.398292  1
  Sr  Sr4  1  0.736448  0.236448  0.101708  1
  Sr  Sr5  1  0.263552  0.236448  0.601708  1
  Sr  Sr6  1  0.736448  0.763552  0.601708  1
  Sr  Sr7  1  0.263552  0.763552  0.101708  1
  Hf  Hf8  1  0.250000  0.750000  0.750000  1
  Hf  Hf9  1  0.750000  0.750000  0.250000  1
  Hf  Hf10  1  0.750000  0.250000  0.750000  1
  Hf  Hf11  1  0.250000  0.250000  0.250000  1
  O  O12  1  0.787318  0.712682  0.413171  1
  O  O13  1  0.212682  0.712682  0.913171  1
  O  O14  1  0.000000  0.500000  0.728783  1
  O  O15  1  0.000000  0.500000  0.228783  1
  O  O16  1  0.500000  0.500000  0.750000  1
  O  O17  1  0.500000  0.500000  0.250000  1
  O  O18  1  0.787318  0.287318  0.913171  1
  O  O19  1  0.212682  0.287318  0.413171  1
  O  O20  1  0.712682  0.212682  0.586829  1
  O  O21  1  0.287318  0.212682  0.086829  1
  O  O22  1  0.000000  0.000000  0.250000  1
  O  O23  1  0.500000  0.000000  0.271217  1
  O  O24  1  0.000000  0.000000  0.750000  1
  O  O25  1  0.500000  0.000000  0.771217  1
  O  O26  1  0.287318  0.787318  0.586829  1
  O  O27  1  0.712682  0.787318  0.086829  1
