# generated using pymatgen
data_VGeO4
_symmetry_space_group_name_H-M   'P 1'
_cell_length_a   4.31015150
_cell_length_b   4.74792455
_cell_length_c   11.62194451
_cell_angle_alpha   90.00000000
_cell_angle_beta   90.00000000
_cell_angle_gamma   90.00000000
_symmetry_Int_Tables_number   1
_chemical_formula_structural   VGeO4
_chemical_formula_sum   'V4 Ge4 O16'
_cell_volume   237.83465832
_cell_formula_units_Z   4
loop_
 _symmetry_equiv_pos_site_id
 _symmetry_equiv_pos_as_xyz
  1  'x, y, z'
loop_
 _atom_site_type_symbol
 _atom_site_label
 _atom_site_symmetry_multiplicity
 _atom_site_fract_x
 _atom_site_fract_y
 _atom_site_fract_z
 _atom_site_occupancy
  V  V0  1  0.500000  0.750000  0.928955  1
  V  V1  1  0.000000  0.750000  0.428955  1
  V  V2  1  0.000000  0.250000  0.571045  1
  V  V3  1  0.500000  0.250000  0.071045  1
  Ge  Ge4  1  0.500000  0.750000  0.677625  1
  Ge  Ge5  1  0.000000  0.250000  0.822375  1
  Ge  Ge6  1  0.000000  0.750000  0.177625  1
  Ge  Ge7  1  0.500000  0.250000  0.322375  1
  O  O8  1  0.729699  0.081479  0.193170  1
  O  O9  1  0.752189  0.577057  0.061267  1
  O  O10  1  0.747811  0.077057  0.438733  1
  O  O11  1  0.752189  0.077057  0.938733  1
  O  O12  1  0.770301  0.581479  0.306830  1
  O  O13  1  0.770301  0.081479  0.693170  1
  O  O14  1  0.729699  0.581479  0.806830  1
  O  O15  1  0.747811  0.577057  0.561267  1
  O  O16  1  0.252189  0.422943  0.438733  1
  O  O17  1  0.270301  0.418521  0.193170  1
  O  O18  1  0.229699  0.918521  0.306830  1
  O  O19  1  0.229699  0.418521  0.693170  1
  O  O20  1  0.247811  0.922943  0.061267  1
  O  O21  1  0.252189  0.922943  0.561267  1
  O  O22  1  0.247811  0.422943  0.938733  1
  O  O23  1  0.270301  0.918521  0.806830  1
