# generated using pymatgen
data_Li5CrO4
_symmetry_space_group_name_H-M   'P 1'
_cell_length_a   9.12651536
_cell_length_b   9.17979092
_cell_length_c   9.46679553
_cell_angle_alpha   90.00000000
_cell_angle_beta   90.00000000
_cell_angle_gamma   90.00000000
_symmetry_Int_Tables_number   1
_chemical_formula_structural   Li5CrO4
_chemical_formula_sum   'Li40 Cr8 O32'
_cell_volume   793.12342292
_cell_formula_units_Z   8
loop_
 _symmetry_equiv_pos_site_id
 _symmetry_equiv_pos_as_xyz
  1  'x, y, z'
loop_
 _atom_site_type_symbol
 _atom_site_label
 _atom_site_symmetry_multiplicity
 _atom_site_fract_x
 _atom_site_fract_y
 _atom_site_fract_z
 _atom_site_occupancy
  Li  Li0  1  0.108559  0.607582  0.141137  1
  Li  Li1  1  0.108559  0.892418  0.641136  1
  Li  Li2  1  0.114732  0.111753  0.839734  1
  Li  Li3  1  0.114732  0.388247  0.339734  1
  Li  Li4  1  0.125011  0.851549  0.380346  1
  Li  Li5  1  0.125011  0.648451  0.880346  1
  Li  Li6  1  0.150410  0.872000  0.114038  1
  Li  Li7  1  0.150410  0.628000  0.614038  1
  Li  Li8  1  0.161168  0.115555  0.393897  1
  Li  Li9  1  0.161168  0.384445  0.893897  1
  Li  Li10  1  0.338832  0.884445  0.893897  1
  Li  Li11  1  0.338832  0.615555  0.393897  1
  Li  Li12  1  0.349590  0.372000  0.114038  1
  Li  Li13  1  0.349590  0.128000  0.614038  1
  Li  Li14  1  0.374989  0.351549  0.380346  1
  Li  Li15  1  0.374989  0.148451  0.880346  1
  Li  Li16  1  0.385268  0.888247  0.339734  1
  Li  Li17  1  0.385268  0.611753  0.839734  1
  Li  Li18  1  0.391441  0.107582  0.141137  1
  Li  Li19  1  0.391441  0.392418  0.641136  1
  Li  Li20  1  0.608559  0.607582  0.358863  1
  Li  Li21  1  0.608559  0.892418  0.858864  1
  Li  Li22  1  0.614732  0.111753  0.660266  1
  Li  Li23  1  0.614732  0.388247  0.160266  1
  Li  Li24  1  0.625011  0.648451  0.619654  1
  Li  Li25  1  0.625011  0.851549  0.119654  1
  Li  Li26  1  0.650410  0.628000  0.885962  1
  Li  Li27  1  0.650410  0.872000  0.385962  1
  Li  Li28  1  0.661168  0.115555  0.106103  1
  Li  Li29  1  0.661168  0.384445  0.606103  1
  Li  Li30  1  0.838832  0.615555  0.106103  1
  Li  Li31  1  0.838832  0.884445  0.606103  1
  Li  Li32  1  0.849590  0.372000  0.385962  1
  Li  Li33  1  0.849590  0.128000  0.885962  1
  Li  Li34  1  0.874989  0.148451  0.619654  1
  Li  Li35  1  0.874989  0.351549  0.119654  1
  Li  Li36  1  0.885268  0.611753  0.660266  1
  Li  Li37  1  0.885268  0.888247  0.160266  1
  Li  Li38  1  0.891441  0.107582  0.358863  1
  Li  Li39  1  0.891441  0.392418  0.858864  1
  Cr  Cr40  1  0.108268  0.147685  0.119267  1
  Cr  Cr41  1  0.108268  0.352315  0.619267  1
  Cr  Cr42  1  0.391732  0.647685  0.119267  1
  Cr  Cr43  1  0.391732  0.852315  0.619267  1
  Cr  Cr44  1  0.608268  0.147685  0.380733  1
  Cr  Cr45  1  0.608268  0.352315  0.880733  1
  Cr  Cr46  1  0.891732  0.647685  0.380733  1
  Cr  Cr47  1  0.891732  0.852315  0.880733  1
  O  O48  1  0.004563  0.249361  0.476452  1
  O  O49  1  0.004563  0.250639  0.976452  1
  O  O50  1  0.040375  0.002245  0.253283  1
  O  O51  1  0.040375  0.497755  0.753283  1
  O  O52  1  0.235922  0.035166  0.000163  1
  O  O53  1  0.235922  0.464834  0.500163  1
  O  O54  1  0.245579  0.240656  0.244782  1
  O  O55  1  0.245579  0.259344  0.744782  1
  O  O56  1  0.254421  0.740656  0.244782  1
  O  O57  1  0.254421  0.759344  0.744782  1
  O  O58  1  0.264078  0.535166  0.000163  1
  O  O59  1  0.264078  0.964834  0.500163  1
  O  O60  1  0.459625  0.502245  0.253283  1
  O  O61  1  0.459625  0.997755  0.753283  1
  O  O62  1  0.495437  0.749361  0.476452  1
  O  O63  1  0.495437  0.750639  0.976452  1
  O  O64  1  0.504563  0.249361  0.023548  1
  O  O65  1  0.504563  0.250639  0.523548  1
  O  O66  1  0.540375  0.002245  0.246717  1
  O  O67  1  0.540375  0.497755  0.746717  1
  O  O68  1  0.735922  0.035166  0.499837  1
  O  O69  1  0.735922  0.464834  0.999837  1
  O  O70  1  0.745579  0.240656  0.255218  1
  O  O71  1  0.745579  0.259344  0.755218  1
  O  O72  1  0.754421  0.740656  0.255218  1
  O  O73  1  0.754421  0.759344  0.755218  1
  O  O74  1  0.764078  0.535166  0.499837  1
  O  O75  1  0.764078  0.964834  0.999837  1
  O  O76  1  0.959625  0.502245  0.246717  1
  O  O77  1  0.959625  0.997755  0.746717  1
  O  O78  1  0.995437  0.749361  0.023548  1
  O  O79  1  0.995437  0.750639  0.523548  1
