# generated using pymatgen
data_Li6Fe(SiO4)2
_symmetry_space_group_name_H-M   'P 1'
_cell_length_a   5.14628463
_cell_length_b   5.56973265
_cell_length_c   6.21964569
_cell_angle_alpha   88.13299137
_cell_angle_beta   79.14345153
_cell_angle_gamma   85.96617711
_symmetry_Int_Tables_number   1
_chemical_formula_structural   Li6Fe(SiO4)2
_chemical_formula_sum   'Li6 Fe1 Si2 O8'
_cell_volume   174.61781505
_cell_formula_units_Z   1
loop_
 _symmetry_equiv_pos_site_id
 _symmetry_equiv_pos_as_xyz
  1  'x, y, z'
loop_
 _atom_site_type_symbol
 _atom_site_label
 _atom_site_symmetry_multiplicity
 _atom_site_fract_x
 _atom_site_fract_y
 _atom_site_fract_z
 _atom_site_occupancy
  Li  Li0  1  0.828689  0.576178  0.192392  1
  Li  Li1  1  0.387275  0.759950  0.962427  1
  Li  Li2  1  0.212921  0.646561  0.382253  1
  Li  Li3  1  0.787079  0.353439  0.617747  1
  Li  Li4  1  0.612725  0.240050  0.037573  1
  Li  Li5  1  0.171311  0.423822  0.807608  1
  Fe  Fe6  1  0.500000  0.000000  0.500000  1
  Si  Si7  1  0.874136  0.791046  0.719483  1
  Si  Si8  1  0.125864  0.208954  0.280517  1
  O  O9  1  0.200196  0.782842  0.702400  1
  O  O10  1  0.303554  0.955196  0.220532  1
  O  O11  1  0.810498  0.710302  0.479273  1
  O  O12  1  0.764369  0.573642  0.893982  1
  O  O13  1  0.235631  0.426358  0.106018  1
  O  O14  1  0.189502  0.289698  0.520727  1
  O  O15  1  0.696446  0.044804  0.779468  1
  O  O16  1  0.799804  0.217158  0.297600  1
