# generated using pymatgen
data_Li2MnCuO4
_symmetry_space_group_name_H-M   'P 1'
_cell_length_a   5.62243065
_cell_length_b   5.62243065
_cell_length_c   6.25480690
_cell_angle_alpha   63.77145114
_cell_angle_beta   116.22854886
_cell_angle_gamma   90.18386084
_symmetry_Int_Tables_number   1
_chemical_formula_structural   Li2MnCuO4
_chemical_formula_sum   'Li4 Mn2 Cu2 O8'
_cell_volume   154.50410288
_cell_formula_units_Z   2
loop_
 _symmetry_equiv_pos_site_id
 _symmetry_equiv_pos_as_xyz
  1  'x, y, z'
loop_
 _atom_site_type_symbol
 _atom_site_label
 _atom_site_symmetry_multiplicity
 _atom_site_fract_x
 _atom_site_fract_y
 _atom_site_fract_z
 _atom_site_occupancy
  Li  Li0  1  0.500000  0.500000  0.000000  1
  Li  Li1  1  1.000000  0.500000  0.500000  1
  Li  Li2  1  0.500000  0.500000  0.500000  1
  Li  Li3  1  0.500000  1.000000  0.000000  1
  Mn  Mn4  1  0.000000  0.000000  0.500000  1
  Mn  Mn5  1  0.000000  0.000000  0.000000  1
  Cu  Cu6  1  0.500000  1.000000  0.500000  1
  Cu  Cu7  1  0.000000  0.500000  0.000000  1
  O  O8  1  0.218120  0.750028  0.977117  1
  O  O9  1  0.800942  0.714476  0.053923  1
  O  O10  1  0.750028  0.218120  0.522883  1
  O  O11  1  0.714476  0.800942  0.446077  1
  O  O12  1  0.285524  0.199058  0.553923  1
  O  O13  1  0.249972  0.781880  0.477117  1
  O  O14  1  0.199058  0.285524  0.946077  1
  O  O15  1  0.781880  0.249972  0.022883  1
