# generated using pymatgen
data_Li2TiFe2O5
_symmetry_space_group_name_H-M   'P 1'
_cell_length_a   5.18785691
_cell_length_b   5.18978334
_cell_length_c   7.95535622
_cell_angle_alpha   71.17898966
_cell_angle_beta   83.68037172
_cell_angle_gamma   70.63109318
_symmetry_Int_Tables_number   1
_chemical_formula_structural   Li2TiFe2O5
_chemical_formula_sum   'Li4 Ti2 Fe4 O10'
_cell_volume   191.26093069
_cell_formula_units_Z   2
loop_
 _symmetry_equiv_pos_site_id
 _symmetry_equiv_pos_as_xyz
  1  'x, y, z'
loop_
 _atom_site_type_symbol
 _atom_site_label
 _atom_site_symmetry_multiplicity
 _atom_site_fract_x
 _atom_site_fract_y
 _atom_site_fract_z
 _atom_site_occupancy
  Li  Li0  1  0.499914  0.900423  0.197672  1
  Li  Li1  1  0.497596  0.496525  0.004624  1
  Li  Li2  1  0.999786  0.401816  0.198390  1
  Li  Li3  1  0.999167  0.203509  0.591614  1
  Ti  Ti4  1  0.497033  0.302876  0.385823  1
  Ti  Ti5  1  0.999863  0.001266  0.005532  1
  Fe  Fe6  1  0.501160  0.698900  0.604065  1
  Fe  Fe7  1  0.002283  0.801715  0.393283  1
  Fe  Fe8  1  0.996296  0.599844  0.801444  1
  Fe  Fe9  1  0.500678  0.096593  0.805561  1
  O  O10  1  0.769956  0.329560  0.819586  1
  O  O11  1  0.262425  0.436288  0.587536  1
  O  O12  1  0.745348  0.158358  0.200032  1
  O  O13  1  0.741234  0.974471  0.584193  1
  O  O14  1  0.238217  0.845180  0.812481  1
  O  O15  1  0.226941  0.223714  0.004283  1
  O  O16  1  0.265974  0.070162  0.397365  1
  O  O17  1  0.771212  0.776508  0.002667  1
  O  O18  1  0.728158  0.539948  0.403994  1
  O  O19  1  0.256758  0.642348  0.199854  1
