# generated using pymatgen
data_V6O7F5
_symmetry_space_group_name_H-M   'P 1'
_cell_length_a   5.61223673
_cell_length_b   5.61919221
_cell_length_c   7.36335505
_cell_angle_alpha   72.36632612
_cell_angle_beta   72.78913717
_cell_angle_gamma   71.72972843
_symmetry_Int_Tables_number   1
_chemical_formula_structural   V6O7F5
_chemical_formula_sum   'V6 O7 F5'
_cell_volume   204.90055688
_cell_formula_units_Z   1
loop_
 _symmetry_equiv_pos_site_id
 _symmetry_equiv_pos_as_xyz
  1  'x, y, z'
loop_
 _atom_site_type_symbol
 _atom_site_label
 _atom_site_symmetry_multiplicity
 _atom_site_fract_x
 _atom_site_fract_y
 _atom_site_fract_z
 _atom_site_occupancy
  V  V0  1  0.673852  0.706726  0.844820  1
  V  V1  1  0.323396  0.345750  0.669183  1
  V  V2  1  0.668933  0.627447  0.325019  1
  V  V3  1  0.318979  0.344449  0.162905  1
  V  V4  1  0.981307  0.999889  0.503103  1
  V  V5  1  0.029793  0.988566  0.998404  1
  O  O6  1  0.018728  0.651641  0.668408  1
  O  O7  1  0.231762  0.232613  0.962292  1
  O  O8  1  0.775868  0.772257  0.030746  1
  O  O9  1  0.431127  0.425097  0.371052  1
  O  O10  1  0.319757  0.698061  0.989525  1
  O  O11  1  0.623669  0.031718  0.675513  1
  O  O12  1  0.970592  0.349897  0.336123  1
  F  F13  1  0.367224  0.956127  0.335576  1
  F  F14  1  0.572157  0.569930  0.634089  1
  F  F15  1  0.892258  0.890300  0.300902  1
  F  F16  1  0.094427  0.104142  0.698533  1
  F  F17  1  0.706168  0.305389  0.993805  1
