# generated using pymatgen
data_Na3GaB4O9
_symmetry_space_group_name_H-M   'P 1'
_cell_length_a   6.28100553
_cell_length_b   8.78197827
_cell_length_c   6.88167886
_cell_angle_alpha   90.00000000
_cell_angle_beta   99.01717170
_cell_angle_gamma   90.00000000
_symmetry_Int_Tables_number   1
_chemical_formula_structural   Na3GaB4O9
_chemical_formula_sum   'Na6 Ga2 B8 O18'
_cell_volume   374.89981659
_cell_formula_units_Z   2
loop_
 _symmetry_equiv_pos_site_id
 _symmetry_equiv_pos_as_xyz
  1  'x, y, z'
loop_
 _atom_site_type_symbol
 _atom_site_label
 _atom_site_symmetry_multiplicity
 _atom_site_fract_x
 _atom_site_fract_y
 _atom_site_fract_z
 _atom_site_occupancy
  Na  Na0  1  0.253626  0.465714  0.177016  1
  Na  Na1  1  0.253626  0.034286  0.177016  1
  Na  Na2  1  0.423022  0.750000  0.492788  1
  Na  Na3  1  0.576978  0.250000  0.507212  1
  Na  Na4  1  0.746374  0.965714  0.822984  1
  Na  Na5  1  0.746374  0.534286  0.822984  1
  Ga  Ga6  1  0.206576  0.750000  0.864175  1
  Ga  Ga7  1  0.793424  0.250000  0.135825  1
  B  B8  1  0.015185  0.750000  0.218598  1
  B  B9  1  0.122154  0.250000  0.474425  1
  B  B10  1  0.245633  0.454729  0.720179  1
  B  B11  1  0.245633  0.045271  0.720179  1
  B  B12  1  0.754367  0.954729  0.279821  1
  B  B13  1  0.754367  0.545271  0.279821  1
  B  B14  1  0.877846  0.750000  0.525575  1
  B  B15  1  0.984815  0.250000  0.781402  1
  O  O16  1  0.117189  0.391511  0.845517  1
  O  O17  1  0.117189  0.108489  0.845517  1
  O  O18  1  0.066259  0.750000  0.431361  1
  O  O19  1  0.076058  0.250000  0.261911  1
  O  O20  1  0.264790  0.388827  0.541298  1
  O  O21  1  0.264790  0.111173  0.541298  1
  O  O22  1  0.216418  0.750000  0.134528  1
  O  O23  1  0.362804  0.913894  0.778477  1
  O  O24  1  0.362804  0.586106  0.778477  1
  O  O25  1  0.637196  0.086106  0.221523  1
  O  O26  1  0.637196  0.413894  0.221523  1
  O  O27  1  0.783582  0.250000  0.865472  1
  O  O28  1  0.735210  0.888827  0.458702  1
  O  O29  1  0.735210  0.611173  0.458702  1
  O  O30  1  0.923942  0.750000  0.738089  1
  O  O31  1  0.933741  0.250000  0.568639  1
  O  O32  1  0.882811  0.891511  0.154483  1
  O  O33  1  0.882811  0.608489  0.154483  1
