# generated using pymatgen
data_Li3V6Fe4(CuO12)2
_symmetry_space_group_name_H-M   'P 1'
_cell_length_a   6.76997128
_cell_length_b   8.19832955
_cell_length_c   9.97774996
_cell_angle_alpha   106.69839481
_cell_angle_beta   104.28355227
_cell_angle_gamma   103.08317400
_symmetry_Int_Tables_number   1
_chemical_formula_structural   Li3V6Fe4(CuO12)2
_chemical_formula_sum   'Li3 V6 Fe4 Cu2 O24'
_cell_volume   486.96732155
_cell_formula_units_Z   1
loop_
 _symmetry_equiv_pos_site_id
 _symmetry_equiv_pos_as_xyz
  1  'x, y, z'
loop_
 _atom_site_type_symbol
 _atom_site_label
 _atom_site_symmetry_multiplicity
 _atom_site_fract_x
 _atom_site_fract_y
 _atom_site_fract_z
 _atom_site_occupancy
  Li  Li0  1  0.395238  0.057476  0.099550  1
  Li  Li1  1  0.000000  0.000000  0.000000  1
  Li  Li2  1  0.604762  0.942524  0.900450  1
  V  V3  1  0.221555  0.161514  0.766390  1
  V  V4  1  0.408349  0.232060  0.379839  1
  V  V5  1  0.878344  0.389353  0.159651  1
  V  V6  1  0.121656  0.610647  0.840349  1
  V  V7  1  0.591651  0.767940  0.620161  1
  V  V8  1  0.778445  0.838486  0.233610  1
  Fe  Fe9  1  0.955310  0.296051  0.488970  1
  Fe  Fe10  1  0.621674  0.550386  0.893049  1
  Fe  Fe11  1  0.378326  0.449614  0.106951  1
  Fe  Fe12  1  0.044690  0.703949  0.511030  1
  Cu  Cu13  1  0.717089  0.214394  0.702040  1
  Cu  Cu14  1  0.282911  0.785606  0.297960  1
  O  O15  1  0.812966  0.058467  0.320471  1
  O  O16  1  0.231739  0.191785  0.953667  1
  O  O17  1  0.005191  0.215195  0.665141  1
  O  O18  1  0.309256  0.008064  0.259612  1
  O  O19  1  0.476225  0.280197  0.766678  1
  O  O20  1  0.661097  0.274865  0.511750  1
  O  O21  1  0.805089  0.165039  0.065321  1
  O  O22  1  0.879661  0.500674  0.854012  1
  O  O23  1  0.231585  0.286793  0.468118  1
  O  O24  1  0.918189  0.438454  0.352458  1
  O  O25  1  0.328471  0.530496  0.923187  1
  O  O26  1  0.436059  0.336685  0.251948  1
  O  O27  1  0.563941  0.663315  0.748052  1
  O  O28  1  0.671529  0.469504  0.076813  1
  O  O29  1  0.081811  0.561546  0.647542  1
  O  O30  1  0.768415  0.713207  0.531882  1
  O  O31  1  0.120339  0.499326  0.145988  1
  O  O32  1  0.194911  0.834961  0.934679  1
  O  O33  1  0.338903  0.725135  0.488250  1
  O  O34  1  0.523775  0.719803  0.233322  1
  O  O35  1  0.690744  0.991936  0.740388  1
  O  O36  1  0.994809  0.784805  0.334859  1
  O  O37  1  0.768261  0.808215  0.046333  1
  O  O38  1  0.187034  0.941533  0.679529  1
