# generated using pymatgen
data_Mn2F5
_symmetry_space_group_name_H-M   'P 1'
_cell_length_a   6.83549618
_cell_length_b   6.83549618
_cell_length_c   5.38218174
_cell_angle_alpha   82.82796737
_cell_angle_beta   97.17203263
_cell_angle_gamma   138.24130982
_symmetry_Int_Tables_number   1
_chemical_formula_structural   Mn2F5
_chemical_formula_sum   'Mn4 F10'
_cell_volume   165.98049000
_cell_formula_units_Z   2
loop_
 _symmetry_equiv_pos_site_id
 _symmetry_equiv_pos_as_xyz
  1  'x, y, z'
loop_
 _atom_site_type_symbol
 _atom_site_label
 _atom_site_symmetry_multiplicity
 _atom_site_fract_x
 _atom_site_fract_y
 _atom_site_fract_z
 _atom_site_occupancy
  Mn  Mn0  1  0.656366  0.901957  0.399265  1
  Mn  Mn1  1  0.901957  0.656366  0.100735  1
  Mn  Mn2  1  0.098043  0.343634  0.899265  1
  Mn  Mn3  1  0.343634  0.098043  0.600735  1
  F  F4  1  0.456815  0.652869  0.105621  1
  F  F5  1  0.268689  0.862273  0.331607  1
  F  F6  1  0.976758  0.976758  0.750000  1
  F  F7  1  0.137727  0.731311  0.831607  1
  F  F8  1  0.347131  0.543185  0.605621  1
  F  F9  1  0.652869  0.456815  0.394379  1
  F  F10  1  0.862273  0.268689  0.168393  1
  F  F11  1  0.731311  0.137727  0.668393  1
  F  F12  1  0.543185  0.347131  0.894379  1
  F  F13  1  0.023242  0.023242  0.250000  1
