# generated using pymatgen
data_Gd3SbO7
_symmetry_space_group_name_H-M   'P 1'
_cell_length_a   6.56121019
_cell_length_b   6.56121019
_cell_length_c   7.60445957
_cell_angle_alpha   90.00000000
_cell_angle_beta   90.00000000
_cell_angle_gamma   109.42011033
_symmetry_Int_Tables_number   1
_chemical_formula_structural   Gd3SbO7
_chemical_formula_sum   'Gd6 Sb2 O14'
_cell_volume   308.74275176
_cell_formula_units_Z   2
loop_
 _symmetry_equiv_pos_site_id
 _symmetry_equiv_pos_as_xyz
  1  'x, y, z'
loop_
 _atom_site_type_symbol
 _atom_site_label
 _atom_site_symmetry_multiplicity
 _atom_site_fract_x
 _atom_site_fract_y
 _atom_site_fract_z
 _atom_site_occupancy
  Gd  Gd0  1  0.468841  0.000284  0.251994  1
  Gd  Gd1  1  0.999716  0.531159  0.248006  1
  Gd  Gd2  1  0.488464  0.488464  0.000000  1
  Gd  Gd3  1  0.511536  0.511536  0.500000  1
  Gd  Gd4  1  0.531159  0.999716  0.751994  1
  Gd  Gd5  1  0.000284  0.468841  0.748006  1
  Sb  Sb6  1  0.999297  0.999297  0.500000  1
  Sb  Sb7  1  0.000703  0.000703  0.000000  1
  O  O8  1  0.932951  0.067049  0.750000  1
  O  O9  1  0.637057  0.362943  0.750000  1
  O  O10  1  0.315058  0.063438  0.532002  1
  O  O11  1  0.936562  0.684942  0.967998  1
  O  O12  1  0.629036  0.370964  0.250000  1
  O  O13  1  0.923863  0.678623  0.527460  1
  O  O14  1  0.321377  0.076137  0.972540  1
  O  O15  1  0.076137  0.321377  0.027460  1
  O  O16  1  0.678623  0.923863  0.472540  1
  O  O17  1  0.370964  0.629036  0.750000  1
  O  O18  1  0.684942  0.936562  0.032002  1
  O  O19  1  0.063438  0.315058  0.467998  1
  O  O20  1  0.362943  0.637057  0.250000  1
  O  O21  1  0.067049  0.932951  0.250000  1
