# generated using pymatgen
data_Li2Bi(BO2)5
_symmetry_space_group_name_H-M   'P 1'
_cell_length_a   7.25873692
_cell_length_b   16.42005030
_cell_length_c   7.26090288
_cell_angle_alpha   90.00000000
_cell_angle_beta   92.62772179
_cell_angle_gamma   90.00000000
_symmetry_Int_Tables_number   1
_chemical_formula_structural   Li2Bi(BO2)5
_chemical_formula_sum   'Li8 Bi4 B20 O40'
_cell_volume   864.50850216
_cell_formula_units_Z   4
loop_
 _symmetry_equiv_pos_site_id
 _symmetry_equiv_pos_as_xyz
  1  'x, y, z'
loop_
 _atom_site_type_symbol
 _atom_site_label
 _atom_site_symmetry_multiplicity
 _atom_site_fract_x
 _atom_site_fract_y
 _atom_site_fract_z
 _atom_site_occupancy
  Li  Li0  1  0.015255  0.841448  0.089142  1
  Li  Li1  1  0.515255  0.658552  0.089142  1
  Li  Li2  1  0.609050  0.085746  0.307265  1
  Li  Li3  1  0.109050  0.414254  0.307265  1
  Li  Li4  1  0.890950  0.585746  0.692735  1
  Li  Li5  1  0.390950  0.914254  0.692735  1
  Li  Li6  1  0.484745  0.341448  0.910858  1
  Li  Li7  1  0.984745  0.158552  0.910858  1
  Bi  Bi8  1  0.523020  0.875114  0.168694  1
  Bi  Bi9  1  0.023020  0.624886  0.168694  1
  Bi  Bi10  1  0.976980  0.375114  0.831306  1
  Bi  Bi11  1  0.476980  0.124886  0.831306  1
  B  B12  1  0.921623  0.978925  0.197402  1
  B  B13  1  0.421623  0.521075  0.197402  1
  B  B14  1  0.514409  0.231536  0.229509  1
  B  B15  1  0.014409  0.268464  0.229509  1
  B  B16  1  0.743666  0.478925  0.259299  1
  B  B17  1  0.243666  0.021075  0.259299  1
  B  B18  1  0.492886  0.378962  0.310613  1
  B  B19  1  0.992886  0.121038  0.310613  1
  B  B20  1  0.521956  0.725767  0.451255  1
  B  B21  1  0.021956  0.774233  0.451255  1
  B  B22  1  0.978044  0.225767  0.548745  1
  B  B23  1  0.478044  0.274233  0.548745  1
  B  B24  1  0.007114  0.878963  0.689387  1
  B  B25  1  0.507114  0.621038  0.689387  1
  B  B26  1  0.756334  0.978925  0.740701  1
  B  B27  1  0.256334  0.521075  0.740701  1
  B  B28  1  0.985591  0.731536  0.770491  1
  B  B29  1  0.485591  0.768464  0.770491  1
  B  B30  1  0.578377  0.478925  0.802598  1
  B  B31  1  0.078377  0.021075  0.802598  1
  O  O32  1  0.540314  0.166457  0.115857  1
  O  O33  1  0.040314  0.333543  0.115857  1
  O  O34  1  0.809514  0.914977  0.141845  1
  O  O35  1  0.309514  0.585023  0.141845  1
  O  O36  1  0.978979  0.190154  0.170489  1
  O  O37  1  0.612145  0.537093  0.187777  1
  O  O38  1  0.478979  0.309846  0.170489  1
  O  O39  1  0.112145  0.962907  0.187777  1
  O  O40  1  0.926685  0.497713  0.265741  1
  O  O41  1  0.426685  0.002287  0.265741  1
  O  O42  1  0.533137  0.744605  0.268619  1
  O  O43  1  0.861762  0.053894  0.251847  1
  O  O44  1  0.033137  0.755395  0.268619  1
  O  O45  1  0.361762  0.446106  0.251847  1
  O  O46  1  0.683432  0.406437  0.322089  1
  O  O47  1  0.183432  0.093563  0.322089  1
  O  O48  1  0.530220  0.214104  0.420740  1
  O  O49  1  0.030220  0.285896  0.420740  1
  O  O50  1  0.563197  0.649219  0.510963  1
  O  O51  1  0.936803  0.149219  0.489037  1
  O  O52  1  0.063197  0.850781  0.510963  1
  O  O53  1  0.436803  0.350781  0.489037  1
  O  O54  1  0.969780  0.714104  0.579260  1
  O  O55  1  0.469780  0.785896  0.579260  1
  O  O56  1  0.816568  0.906437  0.677911  1
  O  O57  1  0.316568  0.593563  0.677911  1
  O  O58  1  0.638238  0.553894  0.748153  1
  O  O59  1  0.966863  0.244605  0.731381  1
  O  O60  1  0.138238  0.946106  0.748153  1
  O  O61  1  0.466863  0.255395  0.731381  1
  O  O62  1  0.573315  0.997713  0.734259  1
  O  O63  1  0.073315  0.502287  0.734259  1
  O  O64  1  0.887855  0.037093  0.812223  1
  O  O65  1  0.521021  0.690154  0.829511  1
  O  O66  1  0.387855  0.462907  0.812223  1
  O  O67  1  0.021021  0.809846  0.829511  1
  O  O68  1  0.690486  0.414977  0.858155  1
  O  O69  1  0.190486  0.085023  0.858155  1
  O  O70  1  0.959686  0.666457  0.884143  1
  O  O71  1  0.459686  0.833543  0.884143  1
