# generated using pymatgen
data_V2O3F
_symmetry_space_group_name_H-M   'P 1'
_cell_length_a   5.57097002
_cell_length_b   5.59270357
_cell_length_c   9.80028171
_cell_angle_alpha   101.54818341
_cell_angle_beta   97.25942423
_cell_angle_gamma   114.45156693
_symmetry_Int_Tables_number   1
_chemical_formula_structural   V2O3F
_chemical_formula_sum   'V8 O12 F4'
_cell_volume   264.73293290
_cell_formula_units_Z   4
loop_
 _symmetry_equiv_pos_site_id
 _symmetry_equiv_pos_as_xyz
  1  'x, y, z'
loop_
 _atom_site_type_symbol
 _atom_site_label
 _atom_site_symmetry_multiplicity
 _atom_site_fract_x
 _atom_site_fract_y
 _atom_site_fract_z
 _atom_site_occupancy
  V  V0  1  0.239063  0.786627  0.976395  1
  V  V1  1  0.000000  0.500000  0.500000  1
  V  V2  1  0.377674  0.392977  0.750094  1
  V  V3  1  0.622326  0.607023  0.249906  1
  V  V4  1  0.134648  0.124441  0.252170  1
  V  V5  1  0.760937  0.213373  0.023605  1
  V  V6  1  0.500000  0.000000  0.500000  1
  V  V7  1  0.865352  0.875559  0.747830  1
  O  O8  1  0.102730  0.801024  0.596814  1
  O  O9  1  0.143042  0.455934  0.903442  1
  O  O10  1  0.897270  0.198976  0.403186  1
  O  O11  1  0.379558  0.686555  0.404133  1
  O  O12  1  0.574156  0.780761  0.647079  1
  O  O13  1  0.425844  0.219239  0.352921  1
  O  O14  1  0.172737  0.988091  0.844521  1
  O  O15  1  0.356572  0.045299  0.096108  1
  O  O16  1  0.856958  0.544066  0.096558  1
  O  O17  1  0.620442  0.313445  0.595867  1
  O  O18  1  0.643428  0.954701  0.903892  1
  O  O19  1  0.827263  0.011909  0.155479  1
  F  F20  1  0.925397  0.717865  0.352400  1
  F  F21  1  0.325933  0.524871  0.146796  1
  F  F22  1  0.074603  0.282135  0.647600  1
  F  F23  1  0.674067  0.475129  0.853204  1
