# generated using pymatgen
data_Li2Cr(PO4)2
_symmetry_space_group_name_H-M   'P 1'
_cell_length_a   6.25315957
_cell_length_b   12.45503041
_cell_length_c   7.46619853
_cell_angle_alpha   90.00000000
_cell_angle_beta   97.85357156
_cell_angle_gamma   90.00000000
_symmetry_Int_Tables_number   1
_chemical_formula_structural   Li2Cr(PO4)2
_chemical_formula_sum   'Li8 Cr4 P8 O32'
_cell_volume   576.03802762
_cell_formula_units_Z   4
loop_
 _symmetry_equiv_pos_site_id
 _symmetry_equiv_pos_as_xyz
  1  'x, y, z'
loop_
 _atom_site_type_symbol
 _atom_site_label
 _atom_site_symmetry_multiplicity
 _atom_site_fract_x
 _atom_site_fract_y
 _atom_site_fract_z
 _atom_site_occupancy
  Li  Li0  1  0.366139  0.224710  0.942232  1
  Li  Li1  1  0.866139  0.275290  0.942232  1
  Li  Li2  1  0.053510  0.623733  0.457089  1
  Li  Li3  1  0.446490  0.123733  0.542911  1
  Li  Li4  1  0.553510  0.876267  0.457089  1
  Li  Li5  1  0.946490  0.376267  0.542911  1
  Li  Li6  1  0.133861  0.724710  0.057768  1
  Li  Li7  1  0.633861  0.775290  0.057768  1
  Cr  Cr8  1  0.244420  0.923589  0.771075  1
  Cr  Cr9  1  0.744420  0.576411  0.771075  1
  Cr  Cr10  1  0.255580  0.423589  0.228925  1
  Cr  Cr11  1  0.755580  0.076411  0.228925  1
  P  P12  1  0.259793  0.529504  0.830028  1
  P  P13  1  0.759793  0.970496  0.830028  1
  P  P14  1  0.461898  0.357777  0.637031  1
  P  P15  1  0.961898  0.142223  0.637031  1
  P  P16  1  0.038102  0.857777  0.362969  1
  P  P17  1  0.538102  0.642223  0.362969  1
  P  P18  1  0.240207  0.029504  0.169972  1
  P  P19  1  0.740207  0.470496  0.169972  1
  O  O20  1  0.272513  0.034716  0.970371  1
  O  O21  1  0.772513  0.465284  0.970371  1
  O  O22  1  0.329395  0.816739  0.910209  1
  O  O23  1  0.829395  0.683261  0.910209  1
  O  O24  1  0.334276  0.409677  0.793283  1
  O  O25  1  0.045897  0.546413  0.702698  1
  O  O26  1  0.433418  0.606319  0.784171  1
  O  O27  1  0.011212  0.253719  0.712826  1
  O  O28  1  0.834276  0.090323  0.793283  1
  O  O29  1  0.545897  0.953587  0.702698  1
  O  O30  1  0.933418  0.893681  0.784171  1
  O  O31  1  0.511212  0.246281  0.712826  1
  O  O32  1  0.157793  0.071119  0.620327  1
  O  O33  1  0.657793  0.428881  0.620327  1
  O  O34  1  0.207619  0.853531  0.534060  1
  O  O35  1  0.707619  0.646469  0.534060  1
  O  O36  1  0.292381  0.353531  0.465940  1
  O  O37  1  0.792381  0.146469  0.465940  1
  O  O38  1  0.342207  0.571119  0.379673  1
  O  O39  1  0.842207  0.928881  0.379673  1
  O  O40  1  0.488788  0.753719  0.287174  1
  O  O41  1  0.066582  0.106319  0.215829  1
  O  O42  1  0.454103  0.046413  0.297302  1
  O  O43  1  0.165724  0.909677  0.206717  1
  O  O44  1  0.988788  0.746281  0.287174  1
  O  O45  1  0.566582  0.393681  0.215829  1
  O  O46  1  0.954103  0.453587  0.297302  1
  O  O47  1  0.665724  0.590323  0.206717  1
  O  O48  1  0.170605  0.316739  0.089791  1
  O  O49  1  0.670605  0.183261  0.089791  1
  O  O50  1  0.227487  0.534716  0.029629  1
  O  O51  1  0.727487  0.965284  0.029629  1
