# generated using pymatgen
data_BiB2O5
_symmetry_space_group_name_H-M   'P 1'
_cell_length_a   6.70321525
_cell_length_b   6.70321525
_cell_length_c   10.24383556
_cell_angle_alpha   78.96034061
_cell_angle_beta   101.03965939
_cell_angle_gamma   118.65163794
_symmetry_Int_Tables_number   1
_chemical_formula_structural   BiB2O5
_chemical_formula_sum   'Bi4 B8 O20'
_cell_volume   393.78740553
_cell_formula_units_Z   4
loop_
 _symmetry_equiv_pos_site_id
 _symmetry_equiv_pos_as_xyz
  1  'x, y, z'
loop_
 _atom_site_type_symbol
 _atom_site_label
 _atom_site_symmetry_multiplicity
 _atom_site_fract_x
 _atom_site_fract_y
 _atom_site_fract_z
 _atom_site_occupancy
  Bi  Bi0  1  0.383379  0.015832  0.308162  1
  Bi  Bi1  1  0.984167  0.616621  0.808162  1
  Bi  Bi2  1  0.015832  0.383379  0.191838  1
  Bi  Bi3  1  0.616621  0.984167  0.691838  1
  B  B4  1  0.829309  0.558868  0.359113  1
  B  B5  1  0.766020  0.718494  0.998910  1
  B  B6  1  0.441132  0.170691  0.859113  1
  B  B7  1  0.281506  0.233980  0.498910  1
  B  B8  1  0.718494  0.766020  0.501090  1
  B  B9  1  0.558868  0.829309  0.140887  1
  B  B10  1  0.233980  0.281506  0.001090  1
  B  B11  1  0.170691  0.441132  0.640887  1
  O  O12  1  0.671824  0.056619  0.159084  1
  O  O13  1  0.943381  0.328176  0.659084  1
  O  O14  1  0.893719  0.600556  0.027219  1
  O  O15  1  0.723619  0.348588  0.310346  1
  O  O16  1  0.399444  0.106281  0.527219  1
  O  O17  1  0.651412  0.276381  0.810346  1
  O  O18  1  0.214660  0.169914  0.128727  1
  O  O19  1  0.706618  0.634061  0.410210  1
  O  O20  1  0.634061  0.706618  0.089790  1
  O  O21  1  0.830086  0.785340  0.628727  1
  O  O22  1  0.169914  0.214660  0.371273  1
  O  O23  1  0.365939  0.293382  0.910210  1
  O  O24  1  0.293382  0.365939  0.589790  1
  O  O25  1  0.785340  0.830086  0.871273  1
  O  O26  1  0.348588  0.723619  0.189654  1
  O  O27  1  0.600556  0.893719  0.472781  1
  O  O28  1  0.276381  0.651412  0.689654  1
  O  O29  1  0.106281  0.399444  0.972781  1
  O  O30  1  0.056619  0.671824  0.340916  1
  O  O31  1  0.328176  0.943381  0.840916  1
