# generated using pymatgen
data_Li4Co2Ni3O10
_symmetry_space_group_name_H-M   'P 1'
_cell_length_a   5.80807139
_cell_length_b   2.86858271
_cell_length_c   20.66049320
_cell_angle_alpha   90.00000000
_cell_angle_beta   97.20909819
_cell_angle_gamma   90.00000000
_symmetry_Int_Tables_number   1
_chemical_formula_structural   Li4Co2Ni3O10
_chemical_formula_sum   'Li8 Co4 Ni6 O20'
_cell_volume   341.50193973
_cell_formula_units_Z   2
loop_
 _symmetry_equiv_pos_site_id
 _symmetry_equiv_pos_as_xyz
  1  'x, y, z'
loop_
 _atom_site_type_symbol
 _atom_site_label
 _atom_site_symmetry_multiplicity
 _atom_site_fract_x
 _atom_site_fract_y
 _atom_site_fract_z
 _atom_site_occupancy
  Li  Li0  1  0.500000  0.000000  0.500000  1
  Li  Li1  1  0.112840  0.000000  0.693521  1
  Li  Li2  1  0.901516  0.500000  0.797421  1
  Li  Li3  1  0.700448  0.000000  0.899383  1
  Li  Li4  1  0.500000  0.500000  0.000000  1
  Li  Li5  1  0.299552  0.000000  0.100617  1
  Li  Li6  1  0.098484  0.500000  0.202579  1
  Li  Li7  1  0.887160  0.000000  0.306479  1
  Co  Co8  1  0.198727  0.500000  0.401878  1
  Co  Co9  1  0.000000  0.000000  0.500000  1
  Co  Co10  1  0.801273  0.500000  0.598122  1
  Co  Co11  1  0.000000  0.500000  0.000000  1
  Ni  Ni12  1  0.598520  0.000000  0.697789  1
  Ni  Ni13  1  0.402917  0.500000  0.799788  1
  Ni  Ni14  1  0.199565  0.000000  0.899486  1
  Ni  Ni15  1  0.800435  0.000000  0.100514  1
  Ni  Ni16  1  0.597083  0.500000  0.200212  1
  Ni  Ni17  1  0.401480  0.000000  0.302211  1
  O  O18  1  0.165268  0.500000  0.308871  1
  O  O19  1  0.983952  0.000000  0.406106  1
  O  O20  1  0.410524  0.000000  0.401273  1
  O  O21  1  0.219243  0.500000  0.493270  1
  O  O22  1  0.780757  0.500000  0.506730  1
  O  O23  1  0.016048  0.000000  0.593894  1
  O  O24  1  0.589476  0.000000  0.598727  1
  O  O25  1  0.371423  0.500000  0.708992  1
  O  O26  1  0.834732  0.500000  0.691129  1
  O  O27  1  0.168231  0.000000  0.799203  1
  O  O28  1  0.636883  0.000000  0.800009  1
  O  O29  1  0.969878  0.500000  0.906974  1
  O  O30  1  0.431777  0.500000  0.893268  1
  O  O31  1  0.227019  0.000000  0.000172  1
  O  O32  1  0.772981  0.000000  0.999828  1
  O  O33  1  0.030122  0.500000  0.093026  1
  O  O34  1  0.568223  0.500000  0.106732  1
  O  O35  1  0.363117  0.000000  0.199991  1
  O  O36  1  0.831769  0.000000  0.200797  1
  O  O37  1  0.628577  0.500000  0.291008  1
