# generated using pymatgen
data_LiNiPO4
_symmetry_space_group_name_H-M   'P 1'
_cell_length_a   4.92657593
_cell_length_b   9.85186779
_cell_length_c   14.04872411
_cell_angle_alpha   90.00000000
_cell_angle_beta   90.00000000
_cell_angle_gamma   90.00000000
_symmetry_Int_Tables_number   1
_chemical_formula_structural   LiNiPO4
_chemical_formula_sum   'Li8 Ni8 P8 O32'
_cell_volume   681.86851825
_cell_formula_units_Z   8
loop_
 _symmetry_equiv_pos_site_id
 _symmetry_equiv_pos_as_xyz
  1  'x, y, z'
loop_
 _atom_site_type_symbol
 _atom_site_label
 _atom_site_symmetry_multiplicity
 _atom_site_fract_x
 _atom_site_fract_y
 _atom_site_fract_z
 _atom_site_occupancy
  Li  Li0  1  0.932256  0.028885  0.498883  1
  Li  Li1  1  0.550452  0.222696  0.248584  1
  Li  Li2  1  0.550452  0.277304  0.748584  1
  Li  Li3  1  0.932256  0.471115  0.998883  1
  Li  Li4  1  0.067744  0.528885  0.498883  1
  Li  Li5  1  0.449548  0.722696  0.248584  1
  Li  Li6  1  0.449548  0.777304  0.748584  1
  Li  Li7  1  0.067744  0.971115  0.998883  1
  Ni  Ni8  1  0.049761  0.030496  0.248004  1
  Ni  Ni9  1  0.543677  0.224409  0.998751  1
  Ni  Ni10  1  0.543677  0.275591  0.498751  1
  Ni  Ni11  1  0.049761  0.469504  0.748004  1
  Ni  Ni12  1  0.950239  0.530496  0.248004  1
  Ni  Ni13  1  0.456323  0.724409  0.998751  1
  Ni  Ni14  1  0.456323  0.775591  0.498751  1
  Ni  Ni15  1  0.950239  0.969504  0.748004  1
  P  P16  1  0.435626  0.028772  0.623528  1
  P  P17  1  0.053592  0.213733  0.872640  1
  P  P18  1  0.053592  0.286267  0.372640  1
  P  P19  1  0.435626  0.471228  0.123528  1
  P  P20  1  0.564374  0.528772  0.623528  1
  P  P21  1  0.946408  0.713733  0.872640  1
  P  P22  1  0.946408  0.786267  0.372640  1
  P  P23  1  0.564374  0.971228  0.123528  1
  O  O24  1  0.874359  0.000199  0.123011  1
  O  O25  1  0.556878  0.965987  0.531287  1
  O  O26  1  0.441674  0.035281  0.214898  1
  O  O27  1  0.990156  0.059350  0.872935  1
  O  O28  1  0.497217  0.183064  0.623804  1
  O  O29  1  0.923539  0.225433  0.464207  1
  O  O30  1  0.939178  0.279686  0.780659  1
  O  O31  1  0.364286  0.239629  0.873209  1
  O  O32  1  0.364286  0.260371  0.373209  1
  O  O33  1  0.939178  0.220314  0.280659  1
  O  O34  1  0.923539  0.274567  0.964207  1
  O  O35  1  0.497217  0.316936  0.123804  1
  O  O36  1  0.990156  0.440650  0.372935  1
  O  O37  1  0.441674  0.464719  0.714898  1
  O  O38  1  0.556878  0.534013  0.031287  1
  O  O39  1  0.874359  0.499801  0.623011  1
  O  O40  1  0.125641  0.500199  0.123011  1
  O  O41  1  0.443122  0.465987  0.531287  1
  O  O42  1  0.558326  0.535281  0.214898  1
  O  O43  1  0.009844  0.559350  0.872935  1
  O  O44  1  0.502783  0.683064  0.623804  1
  O  O45  1  0.076461  0.725433  0.464207  1
  O  O46  1  0.060822  0.779686  0.780659  1
  O  O47  1  0.635714  0.739629  0.873209  1
  O  O48  1  0.635714  0.760371  0.373209  1
  O  O49  1  0.060822  0.720314  0.280659  1
  O  O50  1  0.076461  0.774567  0.964207  1
  O  O51  1  0.502783  0.816936  0.123804  1
  O  O52  1  0.009844  0.940650  0.372935  1
  O  O53  1  0.558326  0.964719  0.714898  1
  O  O54  1  0.443122  0.034013  0.031287  1
  O  O55  1  0.125641  0.999801  0.623011  1
