# generated using pymatgen
data_Na2CoSiCO7
_symmetry_space_group_name_H-M   'P 1'
_cell_length_a   5.15538396
_cell_length_b   6.33386164
_cell_length_c   9.01975989
_cell_angle_alpha   90.00000000
_cell_angle_beta   92.10423371
_cell_angle_gamma   90.00000000
_symmetry_Int_Tables_number   1
_chemical_formula_structural   Na2CoSiCO7
_chemical_formula_sum   'Na4 Co2 Si2 C2 O14'
_cell_volume   294.32802362
_cell_formula_units_Z   2
loop_
 _symmetry_equiv_pos_site_id
 _symmetry_equiv_pos_as_xyz
  1  'x, y, z'
loop_
 _atom_site_type_symbol
 _atom_site_label
 _atom_site_symmetry_multiplicity
 _atom_site_fract_x
 _atom_site_fract_y
 _atom_site_fract_z
 _atom_site_occupancy
  Na  Na0  1  0.762595  0.986372  0.242705  1
  Na  Na1  1  0.762595  0.513628  0.242705  1
  Na  Na2  1  0.237405  0.486372  0.757295  1
  Na  Na3  1  0.237405  0.013628  0.757295  1
  Co  Co4  1  0.209623  0.250000  0.342302  1
  Co  Co5  1  0.790377  0.750000  0.657698  1
  Si  Si6  1  0.288344  0.750000  0.432326  1
  Si  Si7  1  0.711656  0.250000  0.567674  1
  C  C8  1  0.274405  0.250000  0.079999  1
  C  C9  1  0.725595  0.750000  0.920001  1
  O  O10  1  0.695678  0.750000  0.056177  1
  O  O11  1  0.049658  0.250000  0.142193  1
  O  O12  1  0.465066  0.250000  0.181243  1
  O  O13  1  0.214766  0.954445  0.325317  1
  O  O14  1  0.214766  0.545555  0.325317  1
  O  O15  1  0.872895  0.250000  0.415030  1
  O  O16  1  0.604315  0.750000  0.469925  1
  O  O17  1  0.395685  0.250000  0.530075  1
  O  O18  1  0.127105  0.750000  0.584970  1
  O  O19  1  0.785234  0.454445  0.674683  1
  O  O20  1  0.785234  0.045555  0.674683  1
  O  O21  1  0.534934  0.750000  0.818757  1
  O  O22  1  0.950342  0.750000  0.857807  1
  O  O23  1  0.304322  0.250000  0.943823  1
