# generated using pymatgen
data_Li5Mn2Ni5O12
_symmetry_space_group_name_H-M   'P 1'
_cell_length_a   5.08168034
_cell_length_b   5.08168034
_cell_length_c   9.67190722
_cell_angle_alpha   84.76840512
_cell_angle_beta   95.23159488
_cell_angle_gamma   58.99926148
_symmetry_Int_Tables_number   1
_chemical_formula_structural   Li5Mn2Ni5O12
_chemical_formula_sum   'Li5 Mn2 Ni5 O12'
_cell_volume   210.38402038
_cell_formula_units_Z   1
loop_
 _symmetry_equiv_pos_site_id
 _symmetry_equiv_pos_as_xyz
  1  'x, y, z'
loop_
 _atom_site_type_symbol
 _atom_site_label
 _atom_site_symmetry_multiplicity
 _atom_site_fract_x
 _atom_site_fract_y
 _atom_site_fract_z
 _atom_site_occupancy
  Li  Li0  1  0.332859  0.834986  0.758000  1
  Li  Li1  1  0.163098  0.670165  0.240683  1
  Li  Li2  1  0.834986  0.332859  0.242000  1
  Li  Li3  1  0.670165  0.163098  0.759317  1
  Li  Li4  1  0.084329  0.084329  0.000000  1
  Mn  Mn5  1  0.747053  0.747053  0.000000  1
  Mn  Mn6  1  0.251310  0.251310  0.500000  1
  Ni  Ni7  1  0.919834  0.919834  0.500000  1
  Ni  Ni8  1  0.488713  0.004385  0.243416  1
  Ni  Ni9  1  0.004385  0.488713  0.756584  1
  Ni  Ni10  1  0.582995  0.582995  0.500000  1
  Ni  Ni11  1  0.416911  0.416911  0.000000  1
  O  O12  1  0.776980  0.026481  0.119942  1
  O  O13  1  0.026481  0.776980  0.880058  1
  O  O14  1  0.613822  0.885934  0.615655  1
  O  O15  1  0.885934  0.613822  0.384345  1
  O  O16  1  0.477790  0.710214  0.119342  1
  O  O17  1  0.710214  0.477790  0.880658  1
  O  O18  1  0.291090  0.523745  0.618217  1
  O  O19  1  0.523745  0.291090  0.381783  1
  O  O20  1  0.108753  0.395897  0.118294  1
  O  O21  1  0.395897  0.108753  0.881706  1
  O  O22  1  0.980442  0.212214  0.619505  1
  O  O23  1  0.212214  0.980442  0.380495  1
