# generated using pymatgen
data_K5NO4
_symmetry_space_group_name_H-M   'P 1'
_cell_length_a   4.50296091
_cell_length_b   6.26691088
_cell_length_c   10.82712959
_cell_angle_alpha   86.96615732
_cell_angle_beta   79.09165862
_cell_angle_gamma   88.16745792
_symmetry_Int_Tables_number   1
_chemical_formula_structural   K5NO4
_chemical_formula_sum   'K5 N1 O4'
_cell_volume   299.52149700
_cell_formula_units_Z   1
loop_
 _symmetry_equiv_pos_site_id
 _symmetry_equiv_pos_as_xyz
  1  'x, y, z'
loop_
 _atom_site_type_symbol
 _atom_site_label
 _atom_site_symmetry_multiplicity
 _atom_site_fract_x
 _atom_site_fract_y
 _atom_site_fract_z
 _atom_site_occupancy
  K  K0  1  0.021720  0.435372  0.927379  1
  K  K1  1  0.379730  0.884896  0.200591  1
  K  K2  1  0.823245  0.297133  0.479789  1
  K  K3  1  0.226622  0.682825  0.605208  1
  K  K4  1  0.617004  0.097261  0.753490  1
  N  N5  1  0.797945  0.818695  0.394967  1
  O  O6  1  0.630473  0.658081  0.369254  1
  O  O7  1  0.822952  0.990322  0.314251  1
  O  O8  1  0.762262  0.861956  0.518552  1
  O  O9  1  0.129456  0.304070  0.709151  1
