# generated using pymatgen
data_Mn3TeO8
_symmetry_space_group_name_H-M   'P 1'
_cell_length_a   6.11832381
_cell_length_b   6.11832381
_cell_length_c   6.11832381
_cell_angle_alpha   58.76430023
_cell_angle_beta   58.76430023
_cell_angle_gamma   58.76430023
_symmetry_Int_Tables_number   1
_chemical_formula_structural   Mn3TeO8
_chemical_formula_sum   'Mn3 Te1 O8'
_cell_volume   157.37942086
_cell_formula_units_Z   1
loop_
 _symmetry_equiv_pos_site_id
 _symmetry_equiv_pos_as_xyz
  1  'x, y, z'
loop_
 _atom_site_type_symbol
 _atom_site_label
 _atom_site_symmetry_multiplicity
 _atom_site_fract_x
 _atom_site_fract_y
 _atom_site_fract_z
 _atom_site_occupancy
  Mn  Mn0  1  0.500000  0.500000  0.000000  1
  Mn  Mn1  1  0.000000  0.500000  0.500000  1
  Mn  Mn2  1  0.500000  0.000000  0.500000  1
  Te  Te3  1  0.500000  0.500000  0.500000  1
  O  O4  1  0.724730  0.724730  0.724730  1
  O  O5  1  0.728996  0.285717  0.728996  1
  O  O6  1  0.285717  0.728996  0.728996  1
  O  O7  1  0.728996  0.728996  0.285717  1
  O  O8  1  0.271004  0.271004  0.714283  1
  O  O9  1  0.714283  0.271004  0.271004  1
  O  O10  1  0.271004  0.714283  0.271004  1
  O  O11  1  0.275270  0.275270  0.275270  1
