# generated using pymatgen
data_Li5Nb2Ni5O12
_symmetry_space_group_name_H-M   'P 1'
_cell_length_a   5.24169850
_cell_length_b   5.24169850
_cell_length_c   10.03261891
_cell_angle_alpha   84.28763029
_cell_angle_beta   95.71236971
_cell_angle_gamma   58.55082488
_symmetry_Int_Tables_number   1
_chemical_formula_structural   Li5Nb2Ni5O12
_chemical_formula_sum   'Li5 Nb2 Ni5 O12'
_cell_volume   230.23530520
_cell_formula_units_Z   1
loop_
 _symmetry_equiv_pos_site_id
 _symmetry_equiv_pos_as_xyz
  1  'x, y, z'
loop_
 _atom_site_type_symbol
 _atom_site_label
 _atom_site_symmetry_multiplicity
 _atom_site_fract_x
 _atom_site_fract_y
 _atom_site_fract_z
 _atom_site_occupancy
  Li  Li0  1  0.318451  0.817838  0.754673  1
  Li  Li1  1  0.174453  0.683285  0.244643  1
  Li  Li2  1  0.817838  0.318451  0.245327  1
  Li  Li3  1  0.683285  0.174453  0.755357  1
  Li  Li4  1  0.078388  0.078388  0.000000  1
  Nb  Nb5  1  0.746522  0.746522  0.000000  1
  Nb  Nb6  1  0.252678  0.252678  0.500000  1
  Ni  Ni7  1  0.922021  0.922021  0.500000  1
  Ni  Ni8  1  0.493138  0.003870  0.246997  1
  Ni  Ni9  1  0.003870  0.493138  0.753003  1
  Ni  Ni10  1  0.582871  0.582871  0.500000  1
  Ni  Ni11  1  0.417336  0.417336  0.000000  1
  O  O12  1  0.778452  0.029219  0.120842  1
  O  O13  1  0.029219  0.778452  0.879158  1
  O  O14  1  0.626141  0.878520  0.617763  1
  O  O15  1  0.878520  0.626141  0.382237  1
  O  O16  1  0.472693  0.708659  0.119129  1
  O  O17  1  0.708659  0.472693  0.880871  1
  O  O18  1  0.292610  0.538309  0.623302  1
  O  O19  1  0.538309  0.292610  0.376698  1
  O  O20  1  0.119688  0.386357  0.119623  1
  O  O21  1  0.386357  0.119688  0.880377  1
  O  O22  1  0.966761  0.211739  0.624083  1
  O  O23  1  0.211739  0.966761  0.375917  1
