# generated using pymatgen
data_Na2CoAsCO7
_symmetry_space_group_name_H-M   'P 1'
_cell_length_a   5.36723990
_cell_length_b   6.60087653
_cell_length_c   9.12896469
_cell_angle_alpha   90.00000000
_cell_angle_beta   92.81453383
_cell_angle_gamma   90.00000000
_symmetry_Int_Tables_number   1
_chemical_formula_structural   Na2CoAsCO7
_chemical_formula_sum   'Na4 Co2 As2 C2 O14'
_cell_volume   323.03527133
_cell_formula_units_Z   2
loop_
 _symmetry_equiv_pos_site_id
 _symmetry_equiv_pos_as_xyz
  1  'x, y, z'
loop_
 _atom_site_type_symbol
 _atom_site_label
 _atom_site_symmetry_multiplicity
 _atom_site_fract_x
 _atom_site_fract_y
 _atom_site_fract_z
 _atom_site_occupancy
  Na  Na0  1  0.768885  0.499796  0.226138  1
  Na  Na1  1  0.768885  0.000204  0.226138  1
  Na  Na2  1  0.231115  0.500204  0.773862  1
  Na  Na3  1  0.231115  0.999796  0.773862  1
  Co  Co4  1  0.214288  0.250000  0.344186  1
  Co  Co5  1  0.785712  0.750000  0.655814  1
  As  As6  1  0.295382  0.750000  0.430892  1
  As  As7  1  0.704618  0.250000  0.569108  1
  C  C8  1  0.278627  0.250000  0.077756  1
  C  C9  1  0.721373  0.750000  0.922244  1
  O  O10  1  0.714070  0.750000  0.059002  1
  O  O11  1  0.064521  0.250000  0.144142  1
  O  O12  1  0.471399  0.250000  0.169758  1
  O  O13  1  0.208664  0.953502  0.321507  1
  O  O14  1  0.208664  0.546498  0.321507  1
  O  O15  1  0.847839  0.250000  0.406110  1
  O  O16  1  0.620010  0.750000  0.459385  1
  O  O17  1  0.379990  0.250000  0.540615  1
  O  O18  1  0.152161  0.750000  0.593890  1
  O  O19  1  0.791336  0.453502  0.678493  1
  O  O20  1  0.791336  0.046498  0.678493  1
  O  O21  1  0.528601  0.750000  0.830242  1
  O  O22  1  0.935479  0.750000  0.855858  1
  O  O23  1  0.285930  0.250000  0.940998  1
