# generated using pymatgen
data_Li5Mn3(FeO5)2
_symmetry_space_group_name_H-M   'P 1'
_cell_length_a   5.22235286
_cell_length_b   5.23426828
_cell_length_c   7.81613431
_cell_angle_alpha   103.63820289
_cell_angle_beta   108.37757858
_cell_angle_gamma   99.41813473
_symmetry_Int_Tables_number   1
_chemical_formula_structural   Li5Mn3(FeO5)2
_chemical_formula_sum   'Li5 Mn3 Fe2 O10'
_cell_volume   190.36890517
_cell_formula_units_Z   1
loop_
 _symmetry_equiv_pos_site_id
 _symmetry_equiv_pos_as_xyz
  1  'x, y, z'
loop_
 _atom_site_type_symbol
 _atom_site_label
 _atom_site_symmetry_multiplicity
 _atom_site_fract_x
 _atom_site_fract_y
 _atom_site_fract_z
 _atom_site_occupancy
  Li  Li0  1  0.079063  0.789318  0.585466  1
  Li  Li1  1  0.719248  0.605155  0.218116  1
  Li  Li2  1  0.500000  0.500000  0.500000  1
  Li  Li3  1  0.280752  0.394845  0.781884  1
  Li  Li4  1  0.920937  0.210682  0.414534  1
  Mn  Mn5  1  0.500000  0.000000  0.000000  1
  Mn  Mn6  1  0.105003  0.302395  0.102882  1
  Mn  Mn7  1  0.894997  0.697605  0.897118  1
  Fe  Fe8  1  0.302859  0.897560  0.312085  1
  Fe  Fe9  1  0.697141  0.102440  0.687915  1
  O  O10  1  0.912622  0.925767  0.143498  1
  O  O11  1  0.284622  0.676547  0.040846  1
  O  O12  1  0.685879  0.864584  0.449684  1
  O  O13  1  0.530142  0.768931  0.771847  1
  O  O14  1  0.112588  0.543458  0.334715  1
  O  O15  1  0.887412  0.456542  0.665285  1
  O  O16  1  0.469858  0.231069  0.228153  1
  O  O17  1  0.314121  0.135416  0.550316  1
  O  O18  1  0.715378  0.323453  0.959154  1
  O  O19  1  0.087378  0.074233  0.856502  1
