# generated using pymatgen
data_Li5TiV3O8
_symmetry_space_group_name_H-M   'P 1'
_cell_length_a   8.53999799
_cell_length_b   8.56956627
_cell_length_c   8.73075365
_cell_angle_alpha   90.00000000
_cell_angle_beta   90.00000000
_cell_angle_gamma   90.00000000
_symmetry_Int_Tables_number   1
_chemical_formula_structural   Li5TiV3O8
_chemical_formula_sum   'Li20 Ti4 V12 O32'
_cell_volume   638.95216267
_cell_formula_units_Z   4
loop_
 _symmetry_equiv_pos_site_id
 _symmetry_equiv_pos_as_xyz
  1  'x, y, z'
loop_
 _atom_site_type_symbol
 _atom_site_label
 _atom_site_symmetry_multiplicity
 _atom_site_fract_x
 _atom_site_fract_y
 _atom_site_fract_z
 _atom_site_occupancy
  Li  Li0  1  0.549945  0.452042  0.454948  1
  Li  Li1  1  0.362947  0.627752  0.387607  1
  Li  Li2  1  0.377473  0.386880  0.648918  1
  Li  Li3  1  0.388057  0.136287  0.865765  1
  Li  Li4  1  0.305701  0.805330  0.186155  1
  Li  Li5  1  0.194299  0.194670  0.686155  1
  Li  Li6  1  0.111943  0.863713  0.365765  1
  Li  Li7  1  0.122527  0.613120  0.148918  1
  Li  Li8  1  0.137053  0.372248  0.887607  1
  Li  Li9  1  0.950055  0.547958  0.954948  1
  Li  Li10  1  0.049945  0.047958  0.545052  1
  Li  Li11  1  0.862947  0.872248  0.612393  1
  Li  Li12  1  0.877473  0.113120  0.351082  1
  Li  Li13  1  0.888057  0.363713  0.134235  1
  Li  Li14  1  0.805701  0.694670  0.813845  1
  Li  Li15  1  0.694299  0.305330  0.313845  1
  Li  Li16  1  0.611943  0.636287  0.634235  1
  Li  Li17  1  0.622527  0.886880  0.851082  1
  Li  Li18  1  0.637053  0.127752  0.112393  1
  Li  Li19  1  0.450055  0.952042  0.045052  1
  Ti  Ti20  1  0.379237  0.374617  0.123377  1
  Ti  Ti21  1  0.120763  0.625383  0.623377  1
  Ti  Ti22  1  0.879237  0.125383  0.876623  1
  Ti  Ti23  1  0.620763  0.874617  0.376623  1
  V  V24  1  0.378171  0.875791  0.617162  1
  V  V25  1  0.375847  0.130546  0.368680  1
  V  V26  1  0.124153  0.869454  0.868680  1
  V  V27  1  0.121829  0.124209  0.117162  1
  V  V28  1  0.878171  0.624209  0.382838  1
  V  V29  1  0.875847  0.369454  0.631320  1
  V  V30  1  0.624153  0.630546  0.131320  1
  V  V31  1  0.621829  0.375791  0.882838  1
  V  V32  1  0.373397  0.628836  0.875162  1
  V  V33  1  0.126603  0.371164  0.375162  1
  V  V34  1  0.873397  0.871164  0.124838  1
  V  V35  1  0.626603  0.128836  0.624838  1
  O  O36  1  0.389392  0.128038  0.618303  1
  O  O37  1  0.386794  0.876900  0.371694  1
  O  O38  1  0.372035  0.610289  0.118655  1
  O  O39  1  0.371243  0.383075  0.889558  1
  O  O40  1  0.375850  0.143393  0.117340  1
  O  O41  1  0.375540  0.866593  0.862562  1
  O  O42  1  0.363155  0.623980  0.629825  1
  O  O43  1  0.367951  0.380827  0.355707  1
  O  O44  1  0.132049  0.619173  0.855707  1
  O  O45  1  0.136845  0.376020  0.129825  1
  O  O46  1  0.124460  0.133407  0.362562  1
  O  O47  1  0.124150  0.856607  0.617340  1
  O  O48  1  0.128757  0.616925  0.389558  1
  O  O49  1  0.127965  0.389711  0.618655  1
  O  O50  1  0.113206  0.123100  0.871694  1
  O  O51  1  0.110608  0.871962  0.118303  1
  O  O52  1  0.886794  0.623100  0.628306  1
  O  O53  1  0.889392  0.371962  0.381697  1
  O  O54  1  0.872035  0.889711  0.881345  1
  O  O55  1  0.871243  0.116925  0.110442  1
  O  O56  1  0.875850  0.356607  0.882660  1
  O  O57  1  0.875540  0.633407  0.137438  1
  O  O58  1  0.863155  0.876020  0.370175  1
  O  O59  1  0.867951  0.119173  0.644293  1
  O  O60  1  0.632049  0.880827  0.144293  1
  O  O61  1  0.636845  0.123980  0.870175  1
  O  O62  1  0.624460  0.366593  0.637438  1
  O  O63  1  0.624150  0.643393  0.382660  1
  O  O64  1  0.628757  0.883075  0.610442  1
  O  O65  1  0.627965  0.110289  0.381345  1
  O  O66  1  0.610608  0.628038  0.881697  1
  O  O67  1  0.613206  0.376900  0.128306  1
