# generated using pymatgen
data_Li4Nb2V3Ni3O16
_symmetry_space_group_name_H-M   'P 1'
_cell_length_a   5.94065253
_cell_length_b   5.94065253
_cell_length_c   9.71042239
_cell_angle_alpha   89.60020957
_cell_angle_beta   90.39979043
_cell_angle_gamma   119.71115066
_symmetry_Int_Tables_number   1
_chemical_formula_structural   Li4Nb2V3Ni3O16
_chemical_formula_sum   'Li4 Nb2 V3 Ni3 O16'
_cell_volume   297.63201617
_cell_formula_units_Z   1
loop_
 _symmetry_equiv_pos_site_id
 _symmetry_equiv_pos_as_xyz
  1  'x, y, z'
loop_
 _atom_site_type_symbol
 _atom_site_label
 _atom_site_symmetry_multiplicity
 _atom_site_fract_x
 _atom_site_fract_y
 _atom_site_fract_z
 _atom_site_occupancy
  Li  Li0  1  0.339665  0.660335  0.101591  1
  Li  Li1  1  0.999118  0.000882  0.012083  1
  Li  Li2  1  0.998098  0.001902  0.505446  1
  Li  Li3  1  0.668980  0.331020  0.596273  1
  Nb  Nb4  1  0.335952  0.664048  0.498472  1
  Nb  Nb5  1  0.653369  0.346631  0.012598  1
  V  V6  1  0.156985  0.342773  0.779707  1
  V  V7  1  0.657227  0.843015  0.779707  1
  V  V8  1  0.826344  0.173656  0.273638  1
  Ni  Ni9  1  0.169444  0.830556  0.792417  1
  Ni  Ni10  1  0.340663  0.163456  0.288269  1
  Ni  Ni11  1  0.836544  0.659337  0.288269  1
  O  O12  1  0.167087  0.338426  0.408370  1
  O  O13  1  0.481862  0.518138  0.664658  1
  O  O14  1  0.348646  0.651354  0.895015  1
  O  O15  1  0.995682  0.004318  0.695009  1
  O  O16  1  0.991506  0.008494  0.200910  1
  O  O17  1  0.661574  0.832913  0.408370  1
  O  O18  1  0.035863  0.499190  0.662243  1
  O  O19  1  0.500810  0.964137  0.662243  1
  O  O20  1  0.836105  0.163895  0.897068  1
  O  O21  1  0.168221  0.831779  0.416199  1
  O  O22  1  0.531272  0.032139  0.149744  1
  O  O23  1  0.967861  0.468728  0.149744  1
  O  O24  1  0.685495  0.314505  0.391750  1
  O  O25  1  0.330247  0.172884  0.903985  1
  O  O26  1  0.522455  0.477545  0.152319  1
  O  O27  1  0.827116  0.669753  0.903985  1
