# generated using pymatgen
data_Ca5Y3Ti5Mn3O24
_symmetry_space_group_name_H-M   'P 1'
_cell_length_a   5.38879442
_cell_length_b   5.61958061
_cell_length_c   15.28738044
_cell_angle_alpha   90.09851502
_cell_angle_beta   90.16211558
_cell_angle_gamma   90.48664343
_symmetry_Int_Tables_number   1
_chemical_formula_structural   Ca5Y3Ti5Mn3O24
_chemical_formula_sum   'Ca5 Y3 Ti5 Mn3 O24'
_cell_volume   462.92488931
_cell_formula_units_Z   1
loop_
 _symmetry_equiv_pos_site_id
 _symmetry_equiv_pos_as_xyz
  1  'x, y, z'
loop_
 _atom_site_type_symbol
 _atom_site_label
 _atom_site_symmetry_multiplicity
 _atom_site_fract_x
 _atom_site_fract_y
 _atom_site_fract_z
 _atom_site_occupancy
  Ca  Ca0  1  0.012887  0.050993  0.623857  1
  Ca  Ca1  1  0.012795  0.057283  0.128003  1
  Ca  Ca2  1  0.490822  0.552898  0.623699  1
  Ca  Ca3  1  0.510662  0.453522  0.872537  1
  Ca  Ca4  1  0.991162  0.953816  0.872378  1
  Y  Y5  1  0.485243  0.568341  0.128806  1
  Y  Y6  1  0.516701  0.430333  0.374154  1
  Y  Y7  1  0.979958  0.930056  0.374525  1
  Ti  Ti8  1  0.012616  0.502922  0.748183  1
  Ti  Ti9  1  0.007568  0.496566  0.501053  1
  Ti  Ti10  1  0.514013  0.996947  0.749252  1
  Ti  Ti11  1  0.505157  0.022185  0.000984  1
  Ti  Ti12  1  0.991700  0.516449  0.000721  1
  Mn  Mn13  1  0.002387  0.496088  0.249900  1
  Mn  Mn14  1  0.496854  0.000551  0.250330  1
  Mn  Mn15  1  0.493482  0.995059  0.500084  1
  O  O16  1  0.078482  0.520872  0.876004  1
  O  O17  1  0.108074  0.532045  0.374871  1
  O  O18  1  0.202697  0.787937  0.728868  1
  O  O19  1  0.187301  0.799442  0.520974  1
  O  O20  1  0.212291  0.806995  0.225236  1
  O  O21  1  0.210030  0.781125  0.026059  1
  O  O22  1  0.301720  0.317789  0.226811  1
  O  O23  1  0.285055  0.292800  0.729217  1
  O  O24  1  0.294025  0.316771  0.520500  1
  O  O25  1  0.304313  0.294261  0.027173  1
  O  O26  1  0.415904  0.021766  0.876513  1
  O  O27  1  0.391395  0.030180  0.378055  1
  O  O28  1  0.580376  0.974432  0.624911  1
  O  O29  1  0.592091  0.966260  0.122255  1
  O  O30  1  0.707298  0.700431  0.980135  1
  O  O31  1  0.704842  0.714621  0.771793  1
  O  O32  1  0.712485  0.688287  0.467719  1
  O  O33  1  0.708760  0.684957  0.275363  1
  O  O34  1  0.795969  0.202106  0.977796  1
  O  O35  1  0.783881  0.209808  0.771743  1
  O  O36  1  0.800226  0.202315  0.470951  1
  O  O37  1  0.789455  0.186842  0.279881  1
  O  O38  1  0.912436  0.473652  0.625191  1
  O  O39  1  0.896887  0.470297  0.123517  1
