# generated using pymatgen
data_WOF4
_symmetry_space_group_name_H-M   'P 1'
_cell_length_a   5.35215004
_cell_length_b   6.27633523
_cell_length_c   6.52784151
_cell_angle_alpha   102.25142129
_cell_angle_beta   95.15975060
_cell_angle_gamma   107.93499550
_symmetry_Int_Tables_number   1
_chemical_formula_structural   WOF4
_chemical_formula_sum   'W2 O2 F8'
_cell_volume   201.01204067
_cell_formula_units_Z   2
loop_
 _symmetry_equiv_pos_site_id
 _symmetry_equiv_pos_as_xyz
  1  'x, y, z'
loop_
 _atom_site_type_symbol
 _atom_site_label
 _atom_site_symmetry_multiplicity
 _atom_site_fract_x
 _atom_site_fract_y
 _atom_site_fract_z
 _atom_site_occupancy
  W  W0  1  0.913785  0.782075  0.747871  1
  W  W1  1  0.086215  0.217925  0.252129  1
  O  O2  1  0.995161  0.257358  0.499713  1
  O  O3  1  0.004839  0.742642  0.500287  1
  F  F4  1  0.844706  0.319324  0.104463  1
  F  F5  1  0.842979  0.901292  0.110356  1
  F  F6  1  0.638862  0.505292  0.730985  1
  F  F7  1  0.343433  0.075447  0.293603  1
  F  F8  1  0.656567  0.924553  0.706397  1
  F  F9  1  0.361138  0.494708  0.269015  1
  F  F10  1  0.157021  0.098708  0.889644  1
  F  F11  1  0.155294  0.680676  0.895537  1
