# generated using pymatgen
data_Li4Cr5Co3O16
_symmetry_space_group_name_H-M   'P 1'
_cell_length_a   5.83096144
_cell_length_b   5.83771873
_cell_length_c   9.49667806
_cell_angle_alpha   90.93079714
_cell_angle_beta   89.59314671
_cell_angle_gamma   119.46273773
_symmetry_Int_Tables_number   1
_chemical_formula_structural   Li4Cr5Co3O16
_chemical_formula_sum   'Li4 Cr5 Co3 O16'
_cell_volume   281.41935752
_cell_formula_units_Z   1
loop_
 _symmetry_equiv_pos_site_id
 _symmetry_equiv_pos_as_xyz
  1  'x, y, z'
loop_
 _atom_site_type_symbol
 _atom_site_label
 _atom_site_symmetry_multiplicity
 _atom_site_fract_x
 _atom_site_fract_y
 _atom_site_fract_z
 _atom_site_occupancy
  Li  Li0  1  0.325244  0.662600  0.892985  1
  Li  Li1  1  0.005848  0.997115  0.995889  1
  Li  Li2  1  0.006245  0.997615  0.497617  1
  Li  Li3  1  0.666486  0.332446  0.395826  1
  Cr  Cr4  1  0.168541  0.336321  0.209532  1
  Cr  Cr5  1  0.341920  0.676075  0.484766  1
  Cr  Cr6  1  0.663358  0.829541  0.208455  1
  Cr  Cr7  1  0.833843  0.167193  0.708246  1
  Cr  Cr8  1  0.656624  0.334102  0.982511  1
  Co  Co9  1  0.171073  0.828201  0.220781  1
  Co  Co10  1  0.341035  0.169787  0.713565  1
  Co  Co11  1  0.835331  0.659998  0.716952  1
  O  O12  1  0.162157  0.326373  0.607802  1
  O  O13  1  0.481575  0.522685  0.333396  1
  O  O14  1  0.328680  0.668391  0.103174  1
  O  O15  1  0.002483  0.999195  0.309455  1
  O  O16  1  0.012879  0.010223  0.809446  1
  O  O17  1  0.674964  0.843786  0.605366  1
  O  O18  1  0.040491  0.509903  0.342638  1
  O  O19  1  0.493949  0.962207  0.341006  1
  O  O20  1  0.833205  0.163603  0.106412  1
  O  O21  1  0.176351  0.849951  0.604826  1
  O  O22  1  0.519605  0.040928  0.832155  1
  O  O23  1  0.954312  0.473418  0.838405  1
  O  O24  1  0.654751  0.324809  0.605788  1
  O  O25  1  0.328925  0.178475  0.102507  1
  O  O26  1  0.501159  0.465216  0.838382  1
  O  O27  1  0.818666  0.669543  0.099955  1
