# generated using pymatgen
data_Li6AlFeO6
_symmetry_space_group_name_H-M   'P 1'
_cell_length_a   5.39841072
_cell_length_b   5.39841072
_cell_length_c   9.76335818
_cell_angle_alpha   90.00000000
_cell_angle_beta   90.00000000
_cell_angle_gamma   120.00000000
_symmetry_Int_Tables_number   1
_chemical_formula_structural   Li6AlFeO6
_chemical_formula_sum   'Li12 Al2 Fe2 O12'
_cell_volume   246.41191329
_cell_formula_units_Z   2
loop_
 _symmetry_equiv_pos_site_id
 _symmetry_equiv_pos_as_xyz
  1  'x, y, z'
loop_
 _atom_site_type_symbol
 _atom_site_label
 _atom_site_symmetry_multiplicity
 _atom_site_fract_x
 _atom_site_fract_y
 _atom_site_fract_z
 _atom_site_occupancy
  Li  Li0  1  0.940160  0.625352  0.425816  1
  Li  Li1  1  0.059840  0.685192  0.925816  1
  Li  Li2  1  0.625352  0.940160  0.925816  1
  Li  Li3  1  0.940160  0.314808  0.074184  1
  Li  Li4  1  0.685192  0.059840  0.425816  1
  Li  Li5  1  0.059840  0.374648  0.574184  1
  Li  Li6  1  0.625352  0.685192  0.574184  1
  Li  Li7  1  0.374648  0.314808  0.425816  1
  Li  Li8  1  0.314808  0.374648  0.925816  1
  Li  Li9  1  0.685192  0.625352  0.074184  1
  Li  Li10  1  0.374648  0.059840  0.074184  1
  Li  Li11  1  0.314808  0.940160  0.574184  1
  Al  Al12  1  0.666667  0.333333  0.750000  1
  Al  Al13  1  0.333333  0.666667  0.250000  1
  Fe  Fe14  1  0.000000  0.000000  0.250000  1
  Fe  Fe15  1  0.000000  0.000000  0.750000  1
  O  O16  1  0.055309  0.705040  0.135048  1
  O  O17  1  0.944691  0.649731  0.635048  1
  O  O18  1  0.649731  0.944691  0.135048  1
  O  O19  1  0.055309  0.350269  0.364952  1
  O  O20  1  0.944691  0.294960  0.864952  1
  O  O21  1  0.705040  0.055309  0.635048  1
  O  O22  1  0.350269  0.294960  0.635048  1
  O  O23  1  0.705040  0.649731  0.864952  1
  O  O24  1  0.294960  0.350269  0.135048  1
  O  O25  1  0.649731  0.705040  0.364952  1
  O  O26  1  0.294960  0.944691  0.364952  1
  O  O27  1  0.350269  0.055309  0.864952  1
