# generated using pymatgen
data_Fe3Co5O16
_symmetry_space_group_name_H-M   'P 1'
_cell_length_a   5.73883046
_cell_length_b   5.73883046
_cell_length_c   8.55365818
_cell_angle_alpha   88.33452037
_cell_angle_beta   91.66547963
_cell_angle_gamma   120.28860145
_symmetry_Int_Tables_number   1
_chemical_formula_structural   Fe3Co5O16
_chemical_formula_sum   'Fe3 Co5 O16'
_cell_volume   243.11679567
_cell_formula_units_Z   1
loop_
 _symmetry_equiv_pos_site_id
 _symmetry_equiv_pos_as_xyz
  1  'x, y, z'
loop_
 _atom_site_type_symbol
 _atom_site_label
 _atom_site_symmetry_multiplicity
 _atom_site_fract_x
 _atom_site_fract_y
 _atom_site_fract_z
 _atom_site_occupancy
  Fe  Fe0  1  0.834279  0.165721  0.209845  1
  Fe  Fe1  1  0.168065  0.332194  0.709176  1
  Fe  Fe2  1  0.667806  0.831935  0.709176  1
  Co  Co3  1  0.334907  0.167924  0.206784  1
  Co  Co4  1  0.668170  0.331830  0.486187  1
  Co  Co5  1  0.832076  0.665093  0.206784  1
  Co  Co6  1  0.169126  0.830874  0.704041  1
  Co  Co7  1  0.330530  0.669470  0.987521  1
  O  O8  1  0.344718  0.164219  0.597189  1
  O  O9  1  0.523451  0.476549  0.334291  1
  O  O10  1  0.663788  0.336212  0.097936  1
  O  O11  1  0.004630  0.995370  0.317701  1
  O  O12  1  0.008089  0.991911  0.815757  1
  O  O13  1  0.835781  0.655282  0.597189  1
  O  O14  1  0.515642  0.046062  0.343810  1
  O  O15  1  0.953938  0.484358  0.343810  1
  O  O16  1  0.165823  0.834177  0.108405  1
  O  O17  1  0.829796  0.170204  0.596404  1
  O  O18  1  0.044553  0.536776  0.846576  1
  O  O19  1  0.463224  0.955447  0.846576  1
  O  O20  1  0.329268  0.670732  0.595816  1
  O  O21  1  0.171618  0.335433  0.100079  1
  O  O22  1  0.476249  0.523751  0.854777  1
  O  O23  1  0.664567  0.828382  0.100079  1
