# generated using pymatgen
data_VOF3
_symmetry_space_group_name_H-M   'P 1'
_cell_length_a   5.29786612
_cell_length_b   7.90121655
_cell_length_c   9.09324526
_cell_angle_alpha   90.00000000
_cell_angle_beta   110.00680983
_cell_angle_gamma   90.00000000
_symmetry_Int_Tables_number   1
_chemical_formula_structural   VOF3
_chemical_formula_sum   'V4 O4 F12'
_cell_volume   357.66864939
_cell_formula_units_Z   4
loop_
 _symmetry_equiv_pos_site_id
 _symmetry_equiv_pos_as_xyz
  1  'x, y, z'
loop_
 _atom_site_type_symbol
 _atom_site_label
 _atom_site_symmetry_multiplicity
 _atom_site_fract_x
 _atom_site_fract_y
 _atom_site_fract_z
 _atom_site_occupancy
  V  V0  1  0.136418  0.675565  0.548091  1
  V  V1  1  0.136418  0.824435  0.048091  1
  V  V2  1  0.863582  0.175565  0.951909  1
  V  V3  1  0.863582  0.324435  0.451909  1
  O  O4  1  0.068841  0.940041  0.889203  1
  O  O5  1  0.068841  0.559959  0.389203  1
  O  O6  1  0.931159  0.440041  0.610797  1
  O  O7  1  0.931159  0.059959  0.110797  1
  F  F8  1  0.148929  0.269985  0.929287  1
  F  F9  1  0.148929  0.230015  0.429287  1
  F  F10  1  0.287514  0.857125  0.506078  1
  F  F11  1  0.407706  0.594737  0.704265  1
  F  F12  1  0.592294  0.094737  0.795735  1
  F  F13  1  0.712486  0.357125  0.993922  1
  F  F14  1  0.287514  0.642875  0.006078  1
  F  F15  1  0.407706  0.905263  0.204265  1
  F  F16  1  0.592294  0.405263  0.295735  1
  F  F17  1  0.712486  0.142875  0.493922  1
  F  F18  1  0.851071  0.769985  0.570713  1
  F  F19  1  0.851071  0.730015  0.070713  1
