# generated using pymatgen
data_Li3Mn2F9
_symmetry_space_group_name_H-M   'P 1'
_cell_length_a   5.29811383
_cell_length_b   5.32864235
_cell_length_c   15.17729170
_cell_angle_alpha   92.08517474
_cell_angle_beta   93.16868870
_cell_angle_gamma   118.37619156
_symmetry_Int_Tables_number   1
_chemical_formula_structural   Li3Mn2F9
_chemical_formula_sum   'Li6 Mn4 F18'
_cell_volume   375.46287607
_cell_formula_units_Z   2
loop_
 _symmetry_equiv_pos_site_id
 _symmetry_equiv_pos_as_xyz
  1  'x, y, z'
loop_
 _atom_site_type_symbol
 _atom_site_label
 _atom_site_symmetry_multiplicity
 _atom_site_fract_x
 _atom_site_fract_y
 _atom_site_fract_z
 _atom_site_occupancy
  Li  Li0  1  0.248622  0.978282  0.545807  1
  Li  Li1  1  0.386025  0.100256  0.754144  1
  Li  Li2  1  0.558216  0.232564  0.955182  1
  Li  Li3  1  0.469408  0.742531  0.042487  1
  Li  Li4  1  0.725440  0.040528  0.452246  1
  Li  Li5  1  0.594538  0.881266  0.253816  1
  Mn  Mn6  1  0.831179  0.831350  0.851577  1
  Mn  Mn7  1  0.652076  0.690155  0.650556  1
  Mn  Mn8  1  0.322888  0.320180  0.350208  1
  Mn  Mn9  1  0.187103  0.154157  0.149739  1
  F  F10  1  0.486880  0.469407  0.230754  1
  F  F11  1  0.256881  0.975134  0.873175  1
  F  F12  1  0.917661  0.665697  0.583973  1
  F  F13  1  0.393320  0.289305  0.632577  1
  F  F14  1  0.624716  0.619361  0.945903  1
  F  F15  1  0.256093  0.944529  0.237184  1
  F  F16  1  0.731649  0.484898  0.786470  1
  F  F17  1  0.645590  0.335300  0.405647  1
  F  F18  1  0.403992  0.061359  0.060633  1
  F  F19  1  0.848893  0.153650  0.903938  1
  F  F20  1  0.560639  0.899311  0.558168  1
  F  F21  1  0.974041  0.231811  0.285933  1
  F  F22  1  0.474750  0.741577  0.370809  1
  F  F23  1  0.152906  0.409285  0.078691  1
  F  F24  1  0.965699  0.996563  0.734620  1
  F  F25  1  0.112299  0.112025  0.445086  1
  F  F26  1  0.790807  0.884741  0.129926  1
  F  F27  1  0.427490  0.754478  0.730750  1
