# generated using pymatgen
data_Li5Fe8(BO3)8
_symmetry_space_group_name_H-M   'P 1'
_cell_length_a   5.22024939
_cell_length_b   9.05336797
_cell_length_c   11.40099431
_cell_angle_alpha   112.84830424
_cell_angle_beta   102.30001459
_cell_angle_gamma   89.61935025
_symmetry_Int_Tables_number   1
_chemical_formula_structural   Li5Fe8(BO3)8
_chemical_formula_sum   'Li5 Fe8 B8 O24'
_cell_volume   483.40994523
_cell_formula_units_Z   1
loop_
 _symmetry_equiv_pos_site_id
 _symmetry_equiv_pos_as_xyz
  1  'x, y, z'
loop_
 _atom_site_type_symbol
 _atom_site_label
 _atom_site_symmetry_multiplicity
 _atom_site_fract_x
 _atom_site_fract_y
 _atom_site_fract_z
 _atom_site_occupancy
  Li  Li0  1  0.032288  0.022592  0.387840  1
  Li  Li1  1  0.286071  0.273761  0.893353  1
  Li  Li2  1  0.480947  0.506241  0.660511  1
  Li  Li3  1  0.253926  0.238908  0.155983  1
  Li  Li4  1  0.526397  0.535949  0.405176  1
  Fe  Fe5  1  0.026041  0.353688  0.382199  1
  Fe  Fe6  1  0.261180  0.929978  0.882350  1
  Fe  Fe7  1  0.494863  0.148403  0.629542  1
  Fe  Fe8  1  0.235354  0.574660  0.129861  1
  Fe  Fe9  1  0.770130  0.453341  0.884358  1
  Fe  Fe10  1  0.539323  0.850354  0.375639  1
  Fe  Fe11  1  0.961955  0.662712  0.630810  1
  Fe  Fe12  1  0.729135  0.054463  0.127292  1
  B  B13  1  0.024119  0.686196  0.374398  1
  B  B14  1  0.266347  0.605050  0.876608  1
  B  B15  1  0.460222  0.812255  0.627767  1
  B  B16  1  0.228462  0.895626  0.133983  1
  B  B17  1  0.529338  0.188609  0.381923  1
  B  B18  1  0.764909  0.107350  0.878460  1
  B  B19  1  0.993594  0.320195  0.628101  1
  B  B20  1  0.737532  0.392150  0.127543  1
  O  O21  1  0.033418  0.104368  0.886672  1
  O  O22  1  0.105414  0.719299  0.852696  1
  O  O23  1  0.172446  0.501616  0.927960  1
  O  O24  1  0.140547  0.196106  0.637703  1
  O  O25  1  0.094708  0.435747  0.594436  1
  O  O26  1  0.252785  0.842810  0.690295  1
  O  O27  1  0.261023  0.649571  0.328365  1
  O  O28  1  0.504468  0.587966  0.845928  1
  O  O29  1  0.620472  0.211995  0.829793  1
  O  O30  1  0.415434  0.087874  0.429218  1
  O  O31  1  0.392063  0.310336  0.358957  1
  O  O32  1  0.631570  0.014695  0.922059  1
  O  O33  1  0.332299  0.998371  0.083892  1
  O  O34  1  0.571412  0.666585  0.600382  1
  O  O35  1  0.548573  0.923125  0.585390  1
  O  O36  1  0.393031  0.783357  0.162413  1
  O  O37  1  0.465173  0.395782  0.118953  1
  O  O38  1  0.741942  0.332141  0.655907  1
  O  O39  1  0.772949  0.160268  0.355005  1
  O  O40  1  0.911153  0.578869  0.413740  1
  O  O41  1  0.916202  0.825184  0.383867  1
  O  O42  1  0.864705  0.493478  0.088152  1
  O  O43  1  0.879991  0.284152  0.168201  1
  O  O44  1  0.990994  0.909978  0.161888  1
