# generated using pymatgen
data_LiCo2CuO6
_symmetry_space_group_name_H-M   'P 1'
_cell_length_a   6.49731939
_cell_length_b   6.49731939
_cell_length_c   5.87478458
_cell_angle_alpha   76.15282652
_cell_angle_beta   103.84717348
_cell_angle_gamma   154.71116683
_symmetry_Int_Tables_number   1
_chemical_formula_structural   LiCo2CuO6
_chemical_formula_sum   'Li1 Co2 Cu1 O6'
_cell_volume   102.70680414
_cell_formula_units_Z   1
loop_
 _symmetry_equiv_pos_site_id
 _symmetry_equiv_pos_as_xyz
  1  'x, y, z'
loop_
 _atom_site_type_symbol
 _atom_site_label
 _atom_site_symmetry_multiplicity
 _atom_site_fract_x
 _atom_site_fract_y
 _atom_site_fract_z
 _atom_site_occupancy
  Li  Li0  1  0.000000  0.000000  0.000000  1
  Co  Co1  1  0.327107  0.672893  0.172391  1
  Co  Co2  1  0.672893  0.327107  0.827609  1
  Cu  Cu3  1  1.000000  1.000000  0.500000  1
  O  O4  1  0.835463  0.164537  0.380237  1
  O  O5  1  0.520697  0.479303  0.744664  1
  O  O6  1  0.174653  0.825347  0.046465  1
  O  O7  1  0.479303  0.520697  0.255336  1
  O  O8  1  0.164537  0.835463  0.619763  1
  O  O9  1  0.825347  0.174653  0.953535  1
