# generated using pymatgen
data_Li3Cr4(PO4)6
_symmetry_space_group_name_H-M   'P 1'
_cell_length_a   6.35883750
_cell_length_b   8.48147951
_cell_length_c   8.75805641
_cell_angle_alpha   91.45866611
_cell_angle_beta   106.87729036
_cell_angle_gamma   105.54277452
_symmetry_Int_Tables_number   1
_chemical_formula_structural   Li3Cr4(PO4)6
_chemical_formula_sum   'Li3 Cr4 P6 O24'
_cell_volume   432.72937430
_cell_formula_units_Z   1
loop_
 _symmetry_equiv_pos_site_id
 _symmetry_equiv_pos_as_xyz
  1  'x, y, z'
loop_
 _atom_site_type_symbol
 _atom_site_label
 _atom_site_symmetry_multiplicity
 _atom_site_fract_x
 _atom_site_fract_y
 _atom_site_fract_z
 _atom_site_occupancy
  Li  Li0  1  0.739117  0.713128  0.294760  1
  Li  Li1  1  0.000000  0.500000  0.500000  1
  Li  Li2  1  0.260883  0.286872  0.705240  1
  Cr  Cr3  1  0.134313  0.376569  0.059479  1
  Cr  Cr4  1  0.634758  0.059061  0.381410  1
  Cr  Cr5  1  0.365242  0.940939  0.618590  1
  Cr  Cr6  1  0.865687  0.623431  0.940521  1
  P  P7  1  0.650154  0.354982  0.150996  1
  P  P8  1  0.247861  0.714124  0.282168  1
  P  P9  1  0.132177  0.147525  0.352077  1
  P  P10  1  0.867823  0.852475  0.647923  1
  P  P11  1  0.752139  0.285876  0.717832  1
  P  P12  1  0.349846  0.645018  0.849004  1
  O  O13  1  0.825184  0.404134  0.049030  1
  O  O14  1  0.415149  0.353612  0.026361  1
  O  O15  1  0.626418  0.177412  0.191486  1
  O  O16  1  0.025781  0.736382  0.159035  1
  O  O17  1  0.468922  0.834051  0.263635  1
  O  O18  1  0.128307  0.193130  0.181652  1
  O  O19  1  0.730116  0.479133  0.295890  1
  O  O20  1  0.907153  0.013086  0.344203  1
  O  O21  1  0.264321  0.536757  0.252018  1
  O  O22  1  0.328479  0.059032  0.412051  1
  O  O23  1  0.825462  0.702541  0.533862  1
  O  O24  1  0.225520  0.737310  0.452266  1
  O  O25  1  0.774480  0.262690  0.547734  1
  O  O26  1  0.174538  0.297459  0.466138  1
  O  O27  1  0.671521  0.940968  0.587949  1
  O  O28  1  0.735679  0.463243  0.747982  1
  O  O29  1  0.092847  0.986914  0.655797  1
  O  O30  1  0.269884  0.520867  0.704110  1
  O  O31  1  0.871693  0.806870  0.818348  1
  O  O32  1  0.531078  0.165949  0.736365  1
  O  O33  1  0.974219  0.263618  0.840965  1
  O  O34  1  0.373582  0.822588  0.808514  1
  O  O35  1  0.584851  0.646388  0.973639  1
  O  O36  1  0.174816  0.595866  0.950970  1
