# generated using pymatgen
data_Na3Zn4P4H4NO16
_symmetry_space_group_name_H-M   'P 1'
_cell_length_a   8.32308802
_cell_length_b   10.49097261
_cell_length_c   17.58682557
_cell_angle_alpha   90.00000000
_cell_angle_beta   90.00000000
_cell_angle_gamma   90.00000000
_symmetry_Int_Tables_number   1
_chemical_formula_structural   Na3Zn4P4H4NO16
_chemical_formula_sum   'Na12 Zn16 P16 H16 N4 O64'
_cell_volume   1535.63392119
_cell_formula_units_Z   4
loop_
 _symmetry_equiv_pos_site_id
 _symmetry_equiv_pos_as_xyz
  1  'x, y, z'
loop_
 _atom_site_type_symbol
 _atom_site_label
 _atom_site_symmetry_multiplicity
 _atom_site_fract_x
 _atom_site_fract_y
 _atom_site_fract_z
 _atom_site_occupancy
  Na  Na0  1  0.000000  0.027648  0.250000  1
  Na  Na1  1  0.000000  0.972352  0.750000  1
  Na  Na2  1  0.012359  0.683857  0.496171  1
  Na  Na3  1  0.012359  0.316143  0.996171  1
  Na  Na4  1  0.487641  0.183857  0.496171  1
  Na  Na5  1  0.487641  0.816143  0.996171  1
  Na  Na6  1  0.500000  0.527648  0.250000  1
  Na  Na7  1  0.500000  0.472352  0.750000  1
  Na  Na8  1  0.512359  0.183857  0.003829  1
  Na  Na9  1  0.512359  0.816143  0.503829  1
  Na  Na10  1  0.987641  0.316143  0.503829  1
  Na  Na11  1  0.987641  0.683857  0.003829  1
  Zn  Zn12  1  0.173406  0.050641  0.425660  1
  Zn  Zn13  1  0.173406  0.949359  0.925660  1
  Zn  Zn14  1  0.196294  0.320250  0.162394  1
  Zn  Zn15  1  0.196294  0.679750  0.662394  1
  Zn  Zn16  1  0.303706  0.820250  0.162394  1
  Zn  Zn17  1  0.303706  0.179750  0.662394  1
  Zn  Zn18  1  0.326594  0.550641  0.425660  1
  Zn  Zn19  1  0.326594  0.449359  0.925660  1
  Zn  Zn20  1  0.673406  0.550641  0.074340  1
  Zn  Zn21  1  0.673406  0.449359  0.574340  1
  Zn  Zn22  1  0.696294  0.179750  0.837606  1
  Zn  Zn23  1  0.696294  0.820250  0.337606  1
  Zn  Zn24  1  0.803706  0.320250  0.337606  1
  Zn  Zn25  1  0.803706  0.679750  0.837606  1
  Zn  Zn26  1  0.826594  0.050641  0.074340  1
  Zn  Zn27  1  0.826594  0.949359  0.574340  1
  P  P28  1  0.205055  0.313890  0.342777  1
  P  P29  1  0.205055  0.686110  0.842777  1
  P  P30  1  0.211174  0.068946  0.080040  1
  P  P31  1  0.211174  0.931054  0.580040  1
  P  P32  1  0.288826  0.568946  0.080040  1
  P  P33  1  0.288826  0.431054  0.580040  1
  P  P34  1  0.294945  0.186110  0.842777  1
  P  P35  1  0.294945  0.813890  0.342777  1
  P  P36  1  0.705055  0.186110  0.657223  1
  P  P37  1  0.705055  0.813890  0.157223  1
  P  P38  1  0.711174  0.431054  0.919960  1
  P  P39  1  0.711174  0.568946  0.419960  1
  P  P40  1  0.788826  0.068946  0.419960  1
  P  P41  1  0.788826  0.931054  0.919960  1
  P  P42  1  0.794945  0.313890  0.157223  1
  P  P43  1  0.794945  0.686110  0.657223  1
  H  H44  1  0.024338  0.525586  0.296365  1
  H  H45  1  0.024338  0.474414  0.796365  1
  H  H46  1  0.100503  0.639588  0.239581  1
  H  H47  1  0.100503  0.360412  0.739581  1
  H  H48  1  0.399497  0.139588  0.239581  1
  H  H49  1  0.399497  0.860412  0.739581  1
  H  H50  1  0.475662  0.025586  0.296365  1
  H  H51  1  0.475662  0.974414  0.796365  1
  H  H52  1  0.524338  0.025586  0.203635  1
  H  H53  1  0.524338  0.974414  0.703635  1
  H  H54  1  0.600503  0.139588  0.260419  1
  H  H55  1  0.600503  0.860412  0.760419  1
  H  H56  1  0.899497  0.639588  0.260419  1
  H  H57  1  0.899497  0.360412  0.760419  1
  H  H58  1  0.975662  0.474414  0.703635  1
  H  H59  1  0.975662  0.525586  0.203635  1
  N  N60  1  0.000000  0.583094  0.250000  1
  N  N61  1  0.000000  0.416906  0.750000  1
  N  N62  1  0.500000  0.083094  0.250000  1
  N  N63  1  0.500000  0.916906  0.750000  1
  O  O64  1  0.031347  0.360802  0.361805  1
  O  O65  1  0.031347  0.639198  0.861805  1
  O  O66  1  0.043679  0.109740  0.050502  1
  O  O67  1  0.043679  0.890260  0.550502  1
  O  O68  1  0.186529  0.065192  0.838340  1
  O  O69  1  0.186529  0.934808  0.338340  1
  O  O70  1  0.191766  0.692359  0.098644  1
  O  O71  1  0.191766  0.307641  0.598644  1
  O  O72  1  0.194820  0.014208  0.652889  1
  O  O73  1  0.194820  0.985792  0.152889  1
  O  O74  1  0.196461  0.495712  0.016369  1
  O  O75  1  0.196461  0.504288  0.516369  1
  O  O76  1  0.208636  0.242964  0.264666  1
  O  O77  1  0.208636  0.757036  0.764666  1
  O  O78  1  0.231225  0.722441  0.405021  1
  O  O79  1  0.231225  0.277559  0.905021  1
  O  O80  1  0.268775  0.222441  0.405021  1
  O  O81  1  0.268775  0.777559  0.905021  1
  O  O82  1  0.291364  0.257036  0.764666  1
  O  O83  1  0.291364  0.742964  0.264666  1
  O  O84  1  0.303539  0.004288  0.516369  1
  O  O85  1  0.303539  0.995712  0.016369  1
  O  O86  1  0.305180  0.485792  0.152889  1
  O  O87  1  0.305180  0.514208  0.652889  1
  O  O88  1  0.308234  0.192359  0.098644  1
  O  O89  1  0.308234  0.807641  0.598644  1
  O  O90  1  0.313471  0.434808  0.338340  1
  O  O91  1  0.313471  0.565192  0.838340  1
  O  O92  1  0.456321  0.609740  0.050502  1
  O  O93  1  0.456321  0.390260  0.550502  1
  O  O94  1  0.468653  0.139198  0.861805  1
  O  O95  1  0.468653  0.860802  0.361805  1
  O  O96  1  0.531347  0.139198  0.638195  1
  O  O97  1  0.531347  0.860802  0.138195  1
  O  O98  1  0.543679  0.390260  0.949498  1
  O  O99  1  0.543679  0.609740  0.449498  1
  O  O100  1  0.686529  0.434808  0.161660  1
  O  O101  1  0.686529  0.565192  0.661660  1
  O  O102  1  0.691766  0.192359  0.401356  1
  O  O103  1  0.691766  0.807641  0.901356  1
  O  O104  1  0.694820  0.485792  0.347111  1
  O  O105  1  0.694820  0.514208  0.847111  1
  O  O106  1  0.696461  0.004288  0.983631  1
  O  O107  1  0.696461  0.995712  0.483631  1
  O  O108  1  0.708636  0.257036  0.735334  1
  O  O109  1  0.708636  0.742964  0.235334  1
  O  O110  1  0.731225  0.222441  0.094979  1
  O  O111  1  0.731225  0.777559  0.594979  1
  O  O112  1  0.768775  0.277559  0.594979  1
  O  O113  1  0.768775  0.722441  0.094979  1
  O  O114  1  0.791364  0.242964  0.235334  1
  O  O115  1  0.791364  0.757036  0.735334  1
  O  O116  1  0.803539  0.495712  0.483631  1
  O  O117  1  0.803539  0.504288  0.983631  1
  O  O118  1  0.805180  0.014208  0.847111  1
  O  O119  1  0.805180  0.985792  0.347111  1
  O  O120  1  0.808234  0.692359  0.401356  1
  O  O121  1  0.808234  0.307641  0.901356  1
  O  O122  1  0.813471  0.065192  0.661660  1
  O  O123  1  0.813471  0.934808  0.161660  1
  O  O124  1  0.956321  0.109740  0.449498  1
  O  O125  1  0.956321  0.890260  0.949498  1
  O  O126  1  0.968653  0.639198  0.638195  1
  O  O127  1  0.968653  0.360802  0.138195  1
