# generated using pymatgen
data_Na4P4H2O13
_symmetry_space_group_name_H-M   'P 1'
_cell_length_a   6.34688197
_cell_length_b   13.61174866
_cell_length_c   13.80604374
_cell_angle_alpha   90.00000000
_cell_angle_beta   90.00000000
_cell_angle_gamma   90.00000000
_symmetry_Int_Tables_number   1
_chemical_formula_structural   Na4P4H2O13
_chemical_formula_sum   'Na16 P16 H8 O52'
_cell_volume   1192.73396944
_cell_formula_units_Z   4
loop_
 _symmetry_equiv_pos_site_id
 _symmetry_equiv_pos_as_xyz
  1  'x, y, z'
loop_
 _atom_site_type_symbol
 _atom_site_label
 _atom_site_symmetry_multiplicity
 _atom_site_fract_x
 _atom_site_fract_y
 _atom_site_fract_z
 _atom_site_occupancy
  Na  Na0  1  0.659974  0.787674  0.525398  1
  Na  Na1  1  0.159974  0.712326  0.474602  1
  Na  Na2  1  0.840026  0.212326  0.025398  1
  Na  Na3  1  0.340026  0.287674  0.974602  1
  Na  Na4  1  0.859107  0.790620  0.028022  1
  Na  Na5  1  0.359107  0.709380  0.971978  1
  Na  Na6  1  0.640893  0.209380  0.528022  1
  Na  Na7  1  0.140893  0.290620  0.471978  1
  Na  Na8  1  0.881695  0.995487  0.416013  1
  Na  Na9  1  0.381695  0.504513  0.583987  1
  Na  Na10  1  0.618305  0.004513  0.916013  1
  Na  Na11  1  0.118305  0.495487  0.083987  1
  Na  Na12  1  0.602338  0.801886  0.764551  1
  Na  Na13  1  0.102338  0.698114  0.235449  1
  Na  Na14  1  0.897662  0.198114  0.264551  1
  Na  Na15  1  0.397662  0.301886  0.735449  1
  P  P16  1  0.388195  0.107645  0.332281  1
  P  P17  1  0.888195  0.392355  0.667719  1
  P  P18  1  0.111805  0.892355  0.832281  1
  P  P19  1  0.611805  0.607645  0.167719  1
  P  P20  1  0.402507  0.889204  0.331495  1
  P  P21  1  0.902507  0.610796  0.668505  1
  P  P22  1  0.097493  0.110796  0.831495  1
  P  P23  1  0.597493  0.389204  0.168505  1
  P  P24  1  0.368033  0.890215  0.113741  1
  P  P25  1  0.868033  0.609785  0.886259  1
  P  P26  1  0.131967  0.109785  0.613741  1
  P  P27  1  0.631967  0.390215  0.386259  1
  P  P28  1  0.344397  0.110859  0.114514  1
  P  P29  1  0.844397  0.389141  0.885486  1
  P  P30  1  0.155603  0.889141  0.614514  1
  P  P31  1  0.655603  0.610859  0.385486  1
  H  H32  1  0.747755  0.982630  0.220129  1
  H  H33  1  0.247755  0.517370  0.779871  1
  H  H34  1  0.752245  0.017370  0.720129  1
  H  H35  1  0.252245  0.482630  0.279871  1
  H  H36  1  0.990601  0.971186  0.211334  1
  H  H37  1  0.490601  0.528814  0.788666  1
  H  H38  1  0.509399  0.028814  0.711334  1
  H  H39  1  0.009399  0.471186  0.288666  1
  O  O40  1  0.586805  0.114110  0.390468  1
  O  O41  1  0.086805  0.385890  0.609532  1
  O  O42  1  0.913195  0.885890  0.890468  1
  O  O43  1  0.413195  0.614110  0.109532  1
  O  O44  1  0.208810  0.176502  0.350338  1
  O  O45  1  0.708810  0.323498  0.649662  1
  O  O46  1  0.291190  0.823498  0.850338  1
  O  O47  1  0.791190  0.676502  0.149662  1
  O  O48  1  0.596345  0.886762  0.392698  1
  O  O49  1  0.096345  0.613238  0.607302  1
  O  O50  1  0.903655  0.113238  0.892698  1
  O  O51  1  0.403655  0.386762  0.107302  1
  O  O52  1  0.230884  0.815217  0.343129  1
  O  O53  1  0.730884  0.684783  0.656871  1
  O  O54  1  0.269116  0.184783  0.843129  1
  O  O55  1  0.769116  0.315217  0.156871  1
  O  O56  1  0.187296  0.818856  0.111570  1
  O  O57  1  0.687296  0.681144  0.888430  1
  O  O58  1  0.312704  0.181144  0.611570  1
  O  O59  1  0.812704  0.318856  0.388430  1
  O  O60  1  0.541316  0.881589  0.040376  1
  O  O61  1  0.041316  0.618411  0.959624  1
  O  O62  1  0.958684  0.118411  0.540376  1
  O  O63  1  0.458684  0.381589  0.459624  1
  O  O64  1  0.154091  0.175638  0.112681  1
  O  O65  1  0.654091  0.324362  0.887319  1
  O  O66  1  0.345909  0.824362  0.612681  1
  O  O67  1  0.845909  0.675638  0.387319  1
  O  O68  1  0.514375  0.124546  0.040137  1
  O  O69  1  0.014375  0.375454  0.959863  1
  O  O70  1  0.985625  0.875454  0.540137  1
  O  O71  1  0.485625  0.624546  0.459863  1
  O  O72  1  0.487208  0.890092  0.218677  1
  O  O73  1  0.987208  0.609908  0.781323  1
  O  O74  1  0.012792  0.109908  0.718677  1
  O  O75  1  0.512792  0.390092  0.281323  1
  O  O76  1  0.464225  0.113225  0.219264  1
  O  O77  1  0.964225  0.386775  0.780736  1
  O  O78  1  0.035775  0.886775  0.719264  1
  O  O79  1  0.535775  0.613225  0.280736  1
  O  O80  1  0.256582  0.997698  0.111440  1
  O  O81  1  0.756582  0.502302  0.888560  1
  O  O82  1  0.243418  0.002302  0.611440  1
  O  O83  1  0.743418  0.497698  0.388560  1
  O  O84  1  0.286759  0.996901  0.338989  1
  O  O85  1  0.786759  0.503099  0.661011  1
  O  O86  1  0.213241  0.003099  0.838989  1
  O  O87  1  0.713241  0.496901  0.161011  1
  O  O88  1  0.880774  0.013259  0.238520  1
  O  O89  1  0.380774  0.486741  0.761480  1
  O  O90  1  0.619226  0.986741  0.738520  1
  O  O91  1  0.119226  0.513259  0.261480  1
