# generated using pymatgen
data_Na5Bi2As(CO4)4
_symmetry_space_group_name_H-M   'P 1'
_cell_length_a   10.43570992
_cell_length_b   10.44947592
_cell_length_c   18.04874843
_cell_angle_alpha   73.77474801
_cell_angle_beta   73.61970029
_cell_angle_gamma   60.30787401
_symmetry_Int_Tables_number   1
_chemical_formula_structural   Na5Bi2As(CO4)4
_chemical_formula_sum   'Na20 Bi8 As4 C16 O64'
_cell_volume   1617.13971533
_cell_formula_units_Z   4
loop_
 _symmetry_equiv_pos_site_id
 _symmetry_equiv_pos_as_xyz
  1  'x, y, z'
loop_
 _atom_site_type_symbol
 _atom_site_label
 _atom_site_symmetry_multiplicity
 _atom_site_fract_x
 _atom_site_fract_y
 _atom_site_fract_z
 _atom_site_occupancy
  Na  Na0  1  0.404677  0.916769  0.161052  1
  Na  Na1  1  0.284576  0.786071  0.535069  1
  Na  Na2  1  0.785741  0.284540  0.035237  1
  Na  Na3  1  0.712947  0.609429  0.464830  1
  Na  Na4  1  0.411914  0.512198  0.157018  1
  Na  Na5  1  0.215207  0.104932  0.963721  1
  Na  Na6  1  0.105292  0.215004  0.463277  1
  Na  Na7  1  0.022630  0.909576  0.164412  1
  Na  Na8  1  0.511826  0.411837  0.657352  1
  Na  Na9  1  0.091636  0.587758  0.339827  1
  Na  Na10  1  0.917161  0.404914  0.660596  1
  Na  Na11  1  0.784386  0.897583  0.034092  1
  Na  Na12  1  0.476823  0.590887  0.340523  1
  Na  Na13  1  0.589952  0.476672  0.840571  1
  Na  Na14  1  0.897487  0.784549  0.534268  1
  Na  Na15  1  0.213762  0.714630  0.963943  1
  Na  Na16  1  0.714411  0.213722  0.464289  1
  Na  Na17  1  0.908909  0.023305  0.664318  1
  Na  Na18  1  0.609780  0.712824  0.964799  1
  Na  Na19  1  0.587787  0.091651  0.839795  1
  Bi  Bi20  1  0.006890  0.496933  0.999473  1
  Bi  Bi21  1  0.249804  0.246396  0.248272  1
  Bi  Bi22  1  0.496082  0.008258  0.499328  1
  Bi  Bi23  1  0.754477  0.244935  0.252157  1
  Bi  Bi24  1  0.245458  0.752801  0.751831  1
  Bi  Bi25  1  0.753648  0.746525  0.750797  1
  Bi  Bi26  1  0.747333  0.754661  0.250322  1
  Bi  Bi27  1  0.246454  0.249575  0.748078  1
  As  As28  1  0.187195  0.687647  0.437542  1
  As  As29  1  0.314272  0.810721  0.062548  1
  As  As30  1  0.687736  0.187159  0.937475  1
  As  As31  1  0.810573  0.314414  0.562509  1
  C  C32  1  0.078777  0.195633  0.136436  1
  C  C33  1  0.078322  0.587238  0.141539  1
  C  C34  1  0.420971  0.920391  0.360751  1
  C  C35  1  0.612843  0.107227  0.170678  1
  C  C36  1  0.110156  0.610926  0.670781  1
  C  C37  1  0.419228  0.300371  0.357979  1
  C  C38  1  0.798895  0.918023  0.360422  1
  C  C39  1  0.300813  0.422418  0.857692  1
  C  C40  1  0.195413  0.077746  0.636930  1
  C  C41  1  0.697106  0.581116  0.139256  1
  C  C42  1  0.580930  0.696950  0.639176  1
  C  C43  1  0.587776  0.078070  0.641085  1
  C  C44  1  0.886121  0.395889  0.332890  1
  C  C45  1  0.396023  0.887320  0.832741  1
  C  C46  1  0.918113  0.423323  0.859695  1
  C  C47  1  0.919392  0.797444  0.862035  1
  O  O48  1  0.128998  0.258478  0.070192  1
  O  O49  1  0.076178  0.595850  0.467633  1
  O  O50  1  0.226821  0.707954  0.336087  1
  O  O51  1  0.152643  0.137019  0.193944  1
  O  O52  1  0.026295  0.640099  0.075872  1
  O  O53  1  0.359272  0.596733  0.468394  1
  O  O54  1  0.086542  0.850221  0.477848  1
  O  O55  1  0.988258  0.365035  0.796676  1
  O  O56  1  0.484859  0.109512  0.176770  1
  O  O57  1  0.486128  0.847491  0.302113  1
  O  O58  1  0.200430  0.464175  0.148753  1
  O  O59  1  0.303441  0.048773  0.355628  1
  O  O60  1  0.228430  0.483323  0.677304  1
  O  O61  1  0.734796  0.981137  0.166151  1
  O  O62  1  0.017077  0.383942  0.331784  1
  O  O63  1  0.414509  0.644119  0.026984  1
  O  O64  1  0.144054  0.912011  0.030677  1
  O  O65  1  0.475945  0.863189  0.425950  1
  O  O66  1  0.620861  0.228401  0.169661  1
  O  O67  1  0.118309  0.733097  0.668799  1
  O  O68  1  0.349671  0.363574  0.297885  1
  O  O69  1  0.806772  0.790046  0.358645  1
  O  O70  1  0.306050  0.297356  0.853384  1
  O  O71  1  0.414353  0.912668  0.028925  1
  O  O72  1  0.284668  0.773494  0.163612  1
  O  O73  1  0.953855  0.188169  0.144140  1
  O  O74  1  0.456711  0.690800  0.644672  1
  O  O75  1  0.261761  0.026567  0.570611  1
  O  O76  1  0.761542  0.527883  0.073975  1
  O  O77  1  0.850338  0.987078  0.297536  1
  O  O78  1  0.364977  0.231853  0.419837  1
  O  O79  1  0.366128  0.487827  0.798881  1
  O  O80  1  0.633910  0.762487  0.574702  1
  O  O81  1  0.639480  0.510046  0.198593  1
  O  O82  1  0.135671  0.005154  0.693502  1
  O  O83  1  0.046958  0.793569  0.858294  1
  O  O84  1  0.738363  0.974619  0.424704  1
  O  O85  1  0.230854  0.483751  0.919958  1
  O  O86  1  0.542339  0.306689  0.355127  1
  O  O87  1  0.595780  0.076313  0.967620  1
  O  O88  1  0.708714  0.226743  0.836001  1
  O  O89  1  0.186859  0.201260  0.644617  1
  O  O90  1  0.688392  0.707336  0.144501  1
  O  O91  1  0.653163  0.635259  0.698076  1
  O  O92  1  0.870897  0.279123  0.335295  1
  O  O93  1  0.539832  0.131070  0.575019  1
  O  O94  1  0.382571  0.769512  0.833203  1
  O  O95  1  0.596251  0.359176  0.968386  1
  O  O96  1  0.850210  0.086356  0.977776  1
  O  O97  1  0.983392  0.620121  0.666726  1
  O  O98  1  0.712688  0.954587  0.647818  1
  O  O99  1  0.280934  0.017273  0.832743  1
  O  O100  1  0.768576  0.526681  0.333271  1
  O  O101  1  0.789870  0.543697  0.858265  1
  O  O102  1  0.527613  0.872616  0.834022  1
  O  O103  1  0.514636  0.148262  0.700664  1
  O  O104  1  0.007090  0.661697  0.199966  1
  O  O105  1  0.912074  0.144369  0.530412  1
  O  O106  1  0.643948  0.414963  0.527089  1
  O  O107  1  0.974050  0.364443  0.924188  1
  O  O108  1  0.850131  0.860663  0.801945  1
  O  O109  1  0.912769  0.414293  0.528856  1
  O  O110  1  0.773226  0.284739  0.663588  1
  O  O111  1  0.860379  0.736295  0.926343  1
