# generated using pymatgen
data_Li2Mn3(Si3O8)2
_symmetry_space_group_name_H-M   'P 1'
_cell_length_a   7.07773881
_cell_length_b   9.86129192
_cell_length_c   10.35024909
_cell_angle_alpha   78.90422851
_cell_angle_beta   70.36376582
_cell_angle_gamma   81.63749921
_symmetry_Int_Tables_number   1
_chemical_formula_structural   Li2Mn3(Si3O8)2
_chemical_formula_sum   'Li4 Mn6 Si12 O32'
_cell_volume   665.11846198
_cell_formula_units_Z   2
loop_
 _symmetry_equiv_pos_site_id
 _symmetry_equiv_pos_as_xyz
  1  'x, y, z'
loop_
 _atom_site_type_symbol
 _atom_site_label
 _atom_site_symmetry_multiplicity
 _atom_site_fract_x
 _atom_site_fract_y
 _atom_site_fract_z
 _atom_site_occupancy
  Li  Li0  1  0.907620  0.885460  0.467459  1
  Li  Li1  1  0.829986  0.584165  0.818828  1
  Li  Li2  1  0.170014  0.415835  0.181172  1
  Li  Li3  1  0.092380  0.114540  0.532541  1
  Mn  Mn4  1  0.421683  0.859381  0.472790  1
  Mn  Mn5  1  0.844216  0.883568  0.115111  1
  Mn  Mn6  1  0.349010  0.874865  0.111322  1
  Mn  Mn7  1  0.650990  0.125135  0.888678  1
  Mn  Mn8  1  0.155784  0.116432  0.884889  1
  Mn  Mn9  1  0.578317  0.140619  0.527210  1
  Si  Si10  1  0.987902  0.863773  0.763726  1
  Si  Si11  1  0.548661  0.866129  0.767774  1
  Si  Si12  1  0.217687  0.680791  0.937779  1
  Si  Si13  1  0.257062  0.606557  0.355875  1
  Si  Si14  1  0.649421  0.594845  0.135144  1
  Si  Si15  1  0.805957  0.603141  0.374542  1
  Si  Si16  1  0.194043  0.396859  0.625458  1
  Si  Si17  1  0.350579  0.405155  0.864856  1
  Si  Si18  1  0.742938  0.393443  0.644125  1
  Si  Si19  1  0.782313  0.319209  0.062221  1
  Si  Si20  1  0.451339  0.133871  0.232226  1
  Si  Si21  1  0.012098  0.136227  0.236274  1
  O  O22  1  0.939564  0.979585  0.867953  1
  O  O23  1  0.451067  0.978560  0.875199  1
  O  O24  1  0.119589  0.916239  0.605468  1
  O  O25  1  0.548891  0.927246  0.611592  1
  O  O26  1  0.783415  0.806951  0.755589  1
  O  O27  1  0.069891  0.713376  0.840400  1
  O  O28  1  0.263454  0.770305  0.355726  1
  O  O29  1  0.438614  0.721871  0.832898  1
  O  O30  1  0.650064  0.757152  0.074787  1
  O  O31  1  0.736494  0.766810  0.376320  1
  O  O32  1  0.136476  0.761160  0.069812  1
  O  O33  1  0.245980  0.509028  0.984672  1
  O  O34  1  0.221514  0.451606  0.757284  1
  O  O35  1  0.048289  0.559848  0.348210  1
  O  O36  1  0.416548  0.554250  0.212663  1
  O  O37  1  0.307820  0.502515  0.486102  1
  O  O38  1  0.692180  0.497485  0.513898  1
  O  O39  1  0.583452  0.445750  0.787337  1
  O  O40  1  0.951711  0.440152  0.651790  1
  O  O41  1  0.778486  0.548394  0.242716  1
  O  O42  1  0.754020  0.490972  0.015328  1
  O  O43  1  0.863524  0.238840  0.930188  1
  O  O44  1  0.263506  0.233190  0.623680  1
  O  O45  1  0.349936  0.242848  0.925213  1
  O  O46  1  0.561386  0.278129  0.167102  1
  O  O47  1  0.736546  0.229695  0.644274  1
  O  O48  1  0.930109  0.286624  0.159600  1
  O  O49  1  0.216585  0.193049  0.244411  1
  O  O50  1  0.451109  0.072754  0.388408  1
  O  O51  1  0.880411  0.083761  0.394532  1
  O  O52  1  0.548933  0.021440  0.124801  1
  O  O53  1  0.060436  0.020415  0.132047  1
