# generated using pymatgen
data_Ni3OF5
_symmetry_space_group_name_H-M   'P 1'
_cell_length_a   5.63058676
_cell_length_b   5.63058676
_cell_length_c   7.39009897
_cell_angle_alpha   71.93250416
_cell_angle_beta   108.06749584
_cell_angle_gamma   108.41450988
_symmetry_Int_Tables_number   1
_chemical_formula_structural   Ni3OF5
_chemical_formula_sum   'Ni6 O2 F10'
_cell_volume   205.40499553
_cell_formula_units_Z   2
loop_
 _symmetry_equiv_pos_site_id
 _symmetry_equiv_pos_as_xyz
  1  'x, y, z'
loop_
 _atom_site_type_symbol
 _atom_site_label
 _atom_site_symmetry_multiplicity
 _atom_site_fract_x
 _atom_site_fract_y
 _atom_site_fract_z
 _atom_site_occupancy
  Ni  Ni0  1  0.341679  0.658321  0.841199  1
  Ni  Ni1  1  0.331146  0.668854  0.334623  1
  Ni  Ni2  1  0.668854  0.331146  0.665377  1
  Ni  Ni3  1  0.658321  0.341679  0.158801  1
  Ni  Ni4  1  0.000000  0.000000  0.500000  1
  Ni  Ni5  1  0.000000  0.000000  0.000000  1
  O  O6  1  0.699414  0.699414  0.000000  1
  O  O7  1  0.300586  0.300586  0.000000  1
  F  F8  1  0.635500  0.975273  0.330701  1
  F  F9  1  0.975273  0.635500  0.669299  1
  F  F10  1  0.765945  0.234055  0.961965  1
  F  F11  1  0.437288  0.562712  0.631409  1
  F  F12  1  0.100362  0.899638  0.299667  1
  F  F13  1  0.234055  0.765945  0.038035  1
  F  F14  1  0.562712  0.437288  0.368591  1
  F  F15  1  0.899638  0.100362  0.700333  1
  F  F16  1  0.024727  0.364500  0.330701  1
  F  F17  1  0.364500  0.024727  0.669299  1
