# generated using pymatgen
data_Li4V2P4H3O16
_symmetry_space_group_name_H-M   'P 1'
_cell_length_a   4.95237447
_cell_length_b   7.71399888
_cell_length_c   8.35020944
_cell_angle_alpha   91.00439361
_cell_angle_beta   90.75265037
_cell_angle_gamma   102.03519898
_symmetry_Int_Tables_number   1
_chemical_formula_structural   Li4V2P4H3O16
_chemical_formula_sum   'Li4 V2 P4 H3 O16'
_cell_volume   311.89416378
_cell_formula_units_Z   1
loop_
 _symmetry_equiv_pos_site_id
 _symmetry_equiv_pos_as_xyz
  1  'x, y, z'
loop_
 _atom_site_type_symbol
 _atom_site_label
 _atom_site_symmetry_multiplicity
 _atom_site_fract_x
 _atom_site_fract_y
 _atom_site_fract_z
 _atom_site_occupancy
  Li  Li0  1  0.123710  0.678849  0.643417  1
  Li  Li1  1  0.390433  0.853563  0.126592  1
  Li  Li2  1  0.584849  0.152902  0.880340  1
  Li  Li3  1  0.876115  0.318879  0.352148  1
  V  V4  1  0.497928  0.002315  0.499532  1
  V  V5  1  0.001507  0.496710  0.003019  1
  P  P6  1  0.110855  0.254088  0.672409  1
  P  P7  1  0.377990  0.242420  0.154181  1
  P  P8  1  0.622233  0.750454  0.845347  1
  P  P9  1  0.881921  0.747366  0.327212  1
  H  H10  1  0.458189  0.460140  0.598386  1
  H  H11  1  0.538768  0.528669  0.379537  1
  H  H12  1  0.943203  0.969481  0.981518  1
  O  O13  1  0.104578  0.823083  0.452157  1
  O  O14  1  0.980703  0.300081  0.829858  1
  O  O15  1  0.257123  0.444787  0.596854  1
  O  O16  1  0.384083  0.660301  0.950574  1
  O  O17  1  0.159615  0.363706  0.173842  1
  O  O18  1  0.260082  0.067492  0.060667  1
  O  O19  1  0.335472  0.149165  0.696206  1
  O  O20  1  0.518112  0.796464  0.682135  1
  O  O21  1  0.478759  0.209215  0.324436  1
  O  O22  1  0.747513  0.935156  0.937057  1
  O  O23  1  0.659185  0.853466  0.303335  1
  O  O24  1  0.847048  0.639974  0.827384  1
  O  O25  1  0.624810  0.345124  0.054945  1
  O  O26  1  0.736556  0.558186  0.406358  1
  O  O27  1  0.007766  0.700396  0.168840  1
  O  O28  1  0.891552  0.177178  0.546826  1
