# generated using pymatgen
data_Li2VF5
_symmetry_space_group_name_H-M   'P 1'
_cell_length_a   5.83589072
_cell_length_b   9.73735834
_cell_length_c   7.83459294
_cell_angle_alpha   90.00000000
_cell_angle_beta   106.29172829
_cell_angle_gamma   90.00000000
_symmetry_Int_Tables_number   1
_chemical_formula_structural   Li2VF5
_chemical_formula_sum   'Li8 V4 F20'
_cell_volume   427.33278148
_cell_formula_units_Z   4
loop_
 _symmetry_equiv_pos_site_id
 _symmetry_equiv_pos_as_xyz
  1  'x, y, z'
loop_
 _atom_site_type_symbol
 _atom_site_label
 _atom_site_symmetry_multiplicity
 _atom_site_fract_x
 _atom_site_fract_y
 _atom_site_fract_z
 _atom_site_occupancy
  Li  Li0  1  0.140614  0.805976  0.482541  1
  Li  Li1  1  0.333839  0.176813  0.626531  1
  Li  Li2  1  0.140614  0.694024  0.982541  1
  Li  Li3  1  0.333839  0.323187  0.126531  1
  Li  Li4  1  0.666161  0.676813  0.873469  1
  Li  Li5  1  0.859386  0.305976  0.017459  1
  Li  Li6  1  0.666161  0.823187  0.373469  1
  Li  Li7  1  0.859386  0.194024  0.517459  1
  V  V8  1  0.129825  0.493370  0.710374  1
  V  V9  1  0.129825  0.006630  0.210374  1
  V  V10  1  0.870175  0.993370  0.789626  1
  V  V11  1  0.870175  0.506630  0.289626  1
  F  F12  1  0.100716  0.124742  0.746074  1
  F  F13  1  0.085395  0.384112  0.905925  1
  F  F14  1  0.100716  0.375258  0.246074  1
  F  F15  1  0.085395  0.115888  0.405925  1
  F  F16  1  0.129950  0.608564  0.492463  1
  F  F17  1  0.365052  0.616913  0.875809  1
  F  F18  1  0.363585  0.368870  0.675559  1
  F  F19  1  0.129950  0.891436  0.992463  1
  F  F20  1  0.365052  0.883087  0.375809  1
  F  F21  1  0.636415  0.868870  0.824441  1
  F  F22  1  0.363585  0.131130  0.175559  1
  F  F23  1  0.634948  0.116913  0.624191  1
  F  F24  1  0.870050  0.108564  0.007537  1
  F  F25  1  0.636415  0.631130  0.324441  1
  F  F26  1  0.634948  0.383087  0.124191  1
  F  F27  1  0.870050  0.391436  0.507537  1
  F  F28  1  0.914605  0.884112  0.594075  1
  F  F29  1  0.899284  0.624742  0.753926  1
  F  F30  1  0.914605  0.615888  0.094075  1
  F  F31  1  0.899284  0.875258  0.253926  1
