# generated using pymatgen
data_Li2CrSiO4
_symmetry_space_group_name_H-M   'P 1'
_cell_length_a   5.39829405
_cell_length_b   10.23588552
_cell_length_c   14.07890764
_cell_angle_alpha   90.00000000
_cell_angle_beta   90.00000000
_cell_angle_gamma   90.00000000
_symmetry_Int_Tables_number   1
_chemical_formula_structural   Li2CrSiO4
_chemical_formula_sum   'Li16 Cr8 Si8 O32'
_cell_volume   777.94862439
_cell_formula_units_Z   8
loop_
 _symmetry_equiv_pos_site_id
 _symmetry_equiv_pos_as_xyz
  1  'x, y, z'
loop_
 _atom_site_type_symbol
 _atom_site_label
 _atom_site_symmetry_multiplicity
 _atom_site_fract_x
 _atom_site_fract_y
 _atom_site_fract_z
 _atom_site_occupancy
  Li  Li0  1  0.102295  0.081201  0.575478  1
  Li  Li1  1  0.491733  0.046113  0.951520  1
  Li  Li2  1  0.099461  0.755808  0.214262  1
  Li  Li3  1  0.544041  0.818932  0.298990  1
  Li  Li4  1  0.099461  0.744192  0.714262  1
  Li  Li5  1  0.544041  0.681068  0.798990  1
  Li  Li6  1  0.491733  0.453887  0.451520  1
  Li  Li7  1  0.102295  0.418799  0.075478  1
  Li  Li8  1  0.508267  0.546113  0.951520  1
  Li  Li9  1  0.897705  0.581201  0.575478  1
  Li  Li10  1  0.455959  0.318932  0.298990  1
  Li  Li11  1  0.900539  0.255808  0.214262  1
  Li  Li12  1  0.455959  0.181068  0.798990  1
  Li  Li13  1  0.900539  0.244192  0.714262  1
  Li  Li14  1  0.897705  0.918799  0.075478  1
  Li  Li15  1  0.508267  0.953887  0.451520  1
  Cr  Cr16  1  0.652053  0.924942  0.669666  1
  Cr  Cr17  1  0.957209  0.814438  0.439437  1
  Cr  Cr18  1  0.957209  0.685562  0.939437  1
  Cr  Cr19  1  0.652053  0.575058  0.169666  1
  Cr  Cr20  1  0.347947  0.424942  0.669666  1
  Cr  Cr21  1  0.042791  0.314438  0.439437  1
  Cr  Cr22  1  0.042791  0.185562  0.939437  1
  Cr  Cr23  1  0.347947  0.075058  0.169666  1
  Si  Si24  1  0.958864  0.004671  0.803606  1
  Si  Si25  1  0.432849  0.803355  0.067578  1
  Si  Si26  1  0.432849  0.696645  0.567578  1
  Si  Si27  1  0.958864  0.495329  0.303606  1
  Si  Si28  1  0.041136  0.504671  0.803606  1
  Si  Si29  1  0.567151  0.303355  0.067578  1
  Si  Si30  1  0.567151  0.196645  0.567578  1
  Si  Si31  1  0.041136  0.995329  0.303606  1
  O  O32  1  0.776870  0.954772  0.352923  1
  O  O33  1  0.059036  0.943759  0.192338  1
  O  O34  1  0.538032  0.955426  0.074534  1
  O  O35  1  0.241208  0.904972  0.365347  1
  O  O36  1  0.870076  0.850712  0.788924  1
  O  O37  1  0.434931  0.763377  0.676082  1
  O  O38  1  0.627929  0.781632  0.503339  1
  O  O39  1  0.149397  0.801627  0.026440  1
  O  O40  1  0.627929  0.718368  0.003339  1
  O  O41  1  0.149397  0.698373  0.526440  1
  O  O42  1  0.434931  0.736623  0.176082  1
  O  O43  1  0.870076  0.649288  0.288924  1
  O  O44  1  0.538032  0.544574  0.574534  1
  O  O45  1  0.241208  0.595028  0.865347  1
  O  O46  1  0.776870  0.545228  0.852923  1
  O  O47  1  0.059036  0.556241  0.692338  1
  O  O48  1  0.940964  0.443759  0.192338  1
  O  O49  1  0.223130  0.454772  0.352923  1
  O  O50  1  0.758792  0.404972  0.365347  1
  O  O51  1  0.461968  0.455426  0.074534  1
  O  O52  1  0.565069  0.263377  0.676082  1
  O  O53  1  0.129924  0.350712  0.788924  1
  O  O54  1  0.850603  0.301627  0.026440  1
  O  O55  1  0.372071  0.281632  0.503339  1
  O  O56  1  0.850603  0.198373  0.526440  1
  O  O57  1  0.372071  0.218368  0.003339  1
  O  O58  1  0.565069  0.236623  0.176082  1
  O  O59  1  0.129924  0.149288  0.288924  1
  O  O60  1  0.758792  0.095028  0.865347  1
  O  O61  1  0.461968  0.044574  0.574534  1
  O  O62  1  0.940964  0.056241  0.692338  1
  O  O63  1  0.223130  0.045228  0.852923  1
