# generated using pymatgen
data_Li3BiB8O15
_symmetry_space_group_name_H-M   'P 1'
_cell_length_a   9.62513289
_cell_length_b   11.98834719
_cell_length_c   11.70694140
_cell_angle_alpha   90.00000000
_cell_angle_beta   90.61621601
_cell_angle_gamma   90.00000000
_symmetry_Int_Tables_number   1
_chemical_formula_structural   Li3BiB8O15
_chemical_formula_sum   'Li12 Bi4 B32 O60'
_cell_volume   1350.77922547
_cell_formula_units_Z   4
loop_
 _symmetry_equiv_pos_site_id
 _symmetry_equiv_pos_as_xyz
  1  'x, y, z'
loop_
 _atom_site_type_symbol
 _atom_site_label
 _atom_site_symmetry_multiplicity
 _atom_site_fract_x
 _atom_site_fract_y
 _atom_site_fract_z
 _atom_site_occupancy
  Li  Li0  1  0.072531  0.068177  0.404440  1
  Li  Li1  1  0.104134  0.695210  0.459372  1
  Li  Li2  1  0.072531  0.431823  0.904440  1
  Li  Li3  1  0.104134  0.804790  0.959372  1
  Li  Li4  1  0.497856  0.231701  0.318548  1
  Li  Li5  1  0.497856  0.268299  0.818548  1
  Li  Li6  1  0.502144  0.731701  0.181452  1
  Li  Li7  1  0.502144  0.768299  0.681452  1
  Li  Li8  1  0.895866  0.195210  0.040628  1
  Li  Li9  1  0.927469  0.568177  0.095560  1
  Li  Li10  1  0.895866  0.304790  0.540628  1
  Li  Li11  1  0.927469  0.931823  0.595560  1
  Bi  Bi12  1  0.251780  0.143864  0.042229  1
  Bi  Bi13  1  0.251780  0.356136  0.542229  1
  Bi  Bi14  1  0.748220  0.643864  0.457771  1
  Bi  Bi15  1  0.748220  0.856136  0.957771  1
  B  B16  1  0.113454  0.351220  0.108380  1
  B  B17  1  0.113454  0.148780  0.608380  1
  B  B18  1  0.131164  0.734310  0.226788  1
  B  B19  1  0.131164  0.765690  0.726788  1
  B  B20  1  0.177967  0.535476  0.191171  1
  B  B21  1  0.177967  0.964524  0.691171  1
  B  B22  1  0.186747  0.908048  0.125867  1
  B  B23  1  0.247322  0.360625  0.287283  1
  B  B24  1  0.186747  0.591952  0.625867  1
  B  B25  1  0.247322  0.139375  0.787283  1
  B  B26  1  0.262046  0.883731  0.322386  1
  B  B27  1  0.262046  0.616269  0.822386  1
  B  B28  1  0.327111  0.603852  0.023766  1
  B  B29  1  0.327111  0.896148  0.523766  1
  B  B30  1  0.535095  0.280145  0.105359  1
  B  B31  1  0.535095  0.219855  0.605359  1
  B  B32  1  0.464905  0.780145  0.394641  1
  B  B33  1  0.464905  0.719855  0.894641  1
  B  B34  1  0.672889  0.103852  0.476234  1
  B  B35  1  0.672889  0.396148  0.976234  1
  B  B36  1  0.737954  0.383731  0.177614  1
  B  B37  1  0.737954  0.116269  0.677614  1
  B  B38  1  0.752678  0.860625  0.212717  1
  B  B39  1  0.813253  0.408048  0.374133  1
  B  B40  1  0.752678  0.639375  0.712717  1
  B  B41  1  0.813253  0.091952  0.874133  1
  B  B42  1  0.822033  0.035476  0.308829  1
  B  B43  1  0.822033  0.464524  0.808829  1
  B  B44  1  0.868836  0.234310  0.273212  1
  B  B45  1  0.868836  0.265690  0.773212  1
  B  B46  1  0.886546  0.851220  0.391620  1
  B  B47  1  0.886546  0.648780  0.891620  1
  O  O48  1  0.091936  0.464348  0.111280  1
  O  O49  1  0.082754  0.288466  0.014607  1
  O  O50  1  0.082310  0.626732  0.224383  1
  O  O51  1  0.091936  0.035652  0.611280  1
  O  O52  1  0.082754  0.211534  0.514607  1
  O  O53  1  0.082310  0.873268  0.724383  1
  O  O54  1  0.151632  0.792573  0.125719  1
  O  O55  1  0.184106  0.297196  0.199104  1
  O  O56  1  0.151632  0.707427  0.625719  1
  O  O57  1  0.184106  0.202804  0.699104  1
  O  O58  1  0.175995  0.957765  0.023591  1
  O  O59  1  0.175995  0.542235  0.523591  1
  O  O60  1  0.158165  0.787631  0.328286  1
  O  O61  1  0.227278  0.472048  0.289466  1
  O  O62  1  0.158165  0.712369  0.828286  1
  O  O63  1  0.227278  0.027952  0.789466  1
  O  O64  1  0.322473  0.305713  0.370635  1
  O  O65  1  0.256502  0.942280  0.432179  1
  O  O66  1  0.322473  0.194287  0.870635  1
  O  O67  1  0.226994  0.958046  0.227319  1
  O  O68  1  0.256502  0.557720  0.932179  1
  O  O69  1  0.226994  0.541954  0.727319  1
  O  O70  1  0.302587  0.581663  0.135284  1
  O  O71  1  0.302587  0.918337  0.635284  1
  O  O72  1  0.445746  0.196791  0.129401  1
  O  O73  1  0.445746  0.303209  0.629401  1
  O  O74  1  0.398627  0.830494  0.302783  1
  O  O75  1  0.434571  0.683029  0.006224  1
  O  O76  1  0.398627  0.669506  0.802783  1
  O  O77  1  0.434571  0.816971  0.506224  1
  O  O78  1  0.565429  0.183029  0.493776  1
  O  O79  1  0.601373  0.330494  0.197217  1
  O  O80  1  0.565429  0.316971  0.993776  1
  O  O81  1  0.601373  0.169506  0.697217  1
  O  O82  1  0.554254  0.696791  0.370599  1
  O  O83  1  0.554254  0.803209  0.870599  1
  O  O84  1  0.697413  0.081663  0.364716  1
  O  O85  1  0.697413  0.418337  0.864716  1
  O  O86  1  0.773006  0.458046  0.272681  1
  O  O87  1  0.743498  0.442280  0.067821  1
  O  O88  1  0.773006  0.041954  0.772681  1
  O  O89  1  0.677527  0.805713  0.129365  1
  O  O90  1  0.743498  0.057720  0.567821  1
  O  O91  1  0.677527  0.694287  0.629365  1
  O  O92  1  0.772722  0.972048  0.210534  1
  O  O93  1  0.841835  0.287631  0.171714  1
  O  O94  1  0.772722  0.527952  0.710534  1
  O  O95  1  0.841835  0.212369  0.671714  1
  O  O96  1  0.824005  0.457765  0.476409  1
  O  O97  1  0.824005  0.042235  0.976409  1
  O  O98  1  0.815894  0.797196  0.300896  1
  O  O99  1  0.848368  0.292573  0.374281  1
  O  O100  1  0.815894  0.702804  0.800896  1
  O  O101  1  0.848368  0.207427  0.874281  1
  O  O102  1  0.917690  0.126732  0.275617  1
  O  O103  1  0.917246  0.788466  0.485393  1
  O  O104  1  0.908064  0.964348  0.388720  1
  O  O105  1  0.917690  0.373268  0.775617  1
  O  O106  1  0.917246  0.711534  0.985393  1
  O  O107  1  0.908064  0.535652  0.888720  1
