# generated using pymatgen
data_Na6Bi2B4AsO16
_symmetry_space_group_name_H-M   'P 1'
_cell_length_a   10.28802286
_cell_length_b   10.28802286
_cell_length_c   10.28802286
_cell_angle_alpha   60.00000000
_cell_angle_beta   60.00000000
_cell_angle_gamma   60.00000000
_symmetry_Int_Tables_number   1
_chemical_formula_structural   Na6Bi2B4AsO16
_chemical_formula_sum   'Na12 Bi4 B8 As2 O32'
_cell_volume   769.98233831
_cell_formula_units_Z   2
loop_
 _symmetry_equiv_pos_site_id
 _symmetry_equiv_pos_as_xyz
  1  'x, y, z'
loop_
 _atom_site_type_symbol
 _atom_site_label
 _atom_site_symmetry_multiplicity
 _atom_site_fract_x
 _atom_site_fract_y
 _atom_site_fract_z
 _atom_site_occupancy
  Na  Na0  1  0.454643  0.454643  0.045357  1
  Na  Na1  1  0.045357  0.454643  0.045357  1
  Na  Na2  1  0.454643  0.045357  0.045357  1
  Na  Na3  1  0.045357  0.454643  0.454643  1
  Na  Na4  1  0.204643  0.204643  0.795357  1
  Na  Na5  1  0.795357  0.204643  0.795357  1
  Na  Na6  1  0.454643  0.045357  0.454643  1
  Na  Na7  1  0.045357  0.045357  0.454643  1
  Na  Na8  1  0.795357  0.204643  0.204643  1
  Na  Na9  1  0.204643  0.795357  0.795357  1
  Na  Na10  1  0.795357  0.795357  0.204643  1
  Na  Na11  1  0.204643  0.795357  0.204643  1
  Bi  Bi12  1  0.625000  0.625000  0.125000  1
  Bi  Bi13  1  0.625000  0.625000  0.625000  1
  Bi  Bi14  1  0.125000  0.625000  0.625000  1
  Bi  Bi15  1  0.625000  0.125000  0.625000  1
  B  B16  1  0.843961  0.468117  0.843961  1
  B  B17  1  0.468117  0.843961  0.843961  1
  B  B18  1  0.843961  0.843961  0.843961  1
  B  B19  1  0.843961  0.843961  0.468117  1
  B  B20  1  0.406039  0.406039  0.781883  1
  B  B21  1  0.406039  0.406039  0.406039  1
  B  B22  1  0.781883  0.406039  0.406039  1
  B  B23  1  0.406039  0.781883  0.406039  1
  As  As24  1  0.000000  1.000000  1.000000  1
  As  As25  1  0.250000  0.250000  0.250000  1
  O  O26  1  0.068489  0.794532  0.068489  1
  O  O27  1  0.068489  0.068489  0.068489  1
  O  O28  1  0.794532  0.068489  0.068489  1
  O  O29  1  0.068489  0.068489  0.794532  1
  O  O30  1  0.717480  0.465178  0.986555  1
  O  O31  1  0.986555  0.465178  0.830787  1
  O  O32  1  0.830787  0.717480  0.986555  1
  O  O33  1  0.830787  0.465178  0.717480  1
  O  O34  1  0.465178  0.830787  0.986555  1
  O  O35  1  0.465178  0.717480  0.830787  1
  O  O36  1  0.986555  0.830787  0.717480  1
  O  O37  1  0.717480  0.986555  0.830787  1
  O  O38  1  0.986555  0.717480  0.465178  1
  O  O39  1  0.465178  0.986555  0.717480  1
  O  O40  1  0.717480  0.830787  0.465178  1
  O  O41  1  0.419213  0.263445  0.784822  1
  O  O42  1  0.830787  0.986555  0.465178  1
  O  O43  1  0.532520  0.419213  0.784822  1
  O  O44  1  0.784822  0.263445  0.532520  1
  O  O45  1  0.263445  0.532520  0.784822  1
  O  O46  1  0.532520  0.263445  0.419213  1
  O  O47  1  0.263445  0.419213  0.532520  1
  O  O48  1  0.784822  0.532520  0.419213  1
  O  O49  1  0.784822  0.419213  0.263445  1
  O  O50  1  0.419213  0.784822  0.532520  1
  O  O51  1  0.419213  0.532520  0.263445  1
  O  O52  1  0.263445  0.784822  0.419213  1
  O  O53  1  0.532520  0.784822  0.263445  1
  O  O54  1  0.181511  0.181511  0.455468  1
  O  O55  1  0.455468  0.181511  0.181511  1
  O  O56  1  0.181511  0.181511  0.181511  1
  O  O57  1  0.181511  0.455468  0.181511  1
