# generated using pymatgen
data_SbH3SO6
_symmetry_space_group_name_H-M   'P 1'
_cell_length_a   6.10886770
_cell_length_b   13.52425638
_cell_length_c   6.82150610
_cell_angle_alpha   90.00000000
_cell_angle_beta   117.90122744
_cell_angle_gamma   90.00000000
_symmetry_Int_Tables_number   1
_chemical_formula_structural   SbH3SO6
_chemical_formula_sum   'Sb4 H12 S4 O24'
_cell_volume   498.06562399
_cell_formula_units_Z   4
loop_
 _symmetry_equiv_pos_site_id
 _symmetry_equiv_pos_as_xyz
  1  'x, y, z'
loop_
 _atom_site_type_symbol
 _atom_site_label
 _atom_site_symmetry_multiplicity
 _atom_site_fract_x
 _atom_site_fract_y
 _atom_site_fract_z
 _atom_site_occupancy
  Sb  Sb0  1  0.948292  0.386425  0.597996  1
  Sb  Sb1  1  0.051708  0.886425  0.902004  1
  Sb  Sb2  1  0.051708  0.613575  0.402004  1
  Sb  Sb3  1  0.948292  0.113575  0.097996  1
  H  H4  1  0.772254  0.572042  0.628049  1
  H  H5  1  0.227746  0.072042  0.871951  1
  H  H6  1  0.227746  0.427958  0.371951  1
  H  H7  1  0.772254  0.927958  0.128049  1
  H  H8  1  0.679362  0.472053  0.811665  1
  H  H9  1  0.320638  0.972053  0.688335  1
  H  H10  1  0.320638  0.527947  0.188335  1
  H  H11  1  0.679362  0.027947  0.311665  1
  H  H12  1  0.740517  0.364581  0.922380  1
  H  H13  1  0.259483  0.864581  0.577620  1
  H  H14  1  0.259483  0.635419  0.077620  1
  H  H15  1  0.740517  0.135419  0.422380  1
  S  S16  1  0.599549  0.840899  0.424267  1
  S  S17  1  0.400451  0.340899  0.075733  1
  S  S18  1  0.400451  0.159101  0.575733  1
  S  S19  1  0.599549  0.659101  0.924267  1
  O  O20  1  0.707068  0.914212  0.624015  1
  O  O21  1  0.292932  0.414212  0.875985  1
  O  O22  1  0.292932  0.085788  0.375985  1
  O  O23  1  0.707068  0.585788  0.124015  1
  O  O24  1  0.777726  0.760421  0.474180  1
  O  O25  1  0.222274  0.260421  0.025820  1
  O  O26  1  0.222274  0.239579  0.525820  1
  O  O27  1  0.777726  0.739579  0.974180  1
  O  O28  1  0.564827  0.900356  0.225833  1
  O  O29  1  0.435173  0.400356  0.274167  1
  O  O30  1  0.435173  0.099644  0.774167  1
  O  O31  1  0.564827  0.599644  0.725833  1
  O  O32  1  0.356013  0.809041  0.396904  1
  O  O33  1  0.643987  0.309041  0.103096  1
  O  O34  1  0.643987  0.190959  0.603096  1
  O  O35  1  0.356013  0.690959  0.896904  1
  O  O36  1  0.876228  0.538014  0.571383  1
  O  O37  1  0.123772  0.038014  0.928617  1
  O  O38  1  0.123772  0.461986  0.428617  1
  O  O39  1  0.876228  0.961986  0.071383  1
  O  O40  1  0.781312  0.412325  0.833410  1
  O  O41  1  0.218688  0.912325  0.666590  1
  O  O42  1  0.218688  0.587675  0.166590  1
  O  O43  1  0.781312  0.087675  0.333410  1
