# generated using pymatgen
data_LiMnSiO4
_symmetry_space_group_name_H-M   'P 1'
_cell_length_a   4.90827468
_cell_length_b   4.90827468
_cell_length_c   6.31551064
_cell_angle_alpha   90.00000000
_cell_angle_beta   90.00000000
_cell_angle_gamma   111.38204852
_symmetry_Int_Tables_number   1
_chemical_formula_structural   LiMnSiO4
_chemical_formula_sum   'Li2 Mn2 Si2 O8'
_cell_volume   141.67564775
_cell_formula_units_Z   2
loop_
 _symmetry_equiv_pos_site_id
 _symmetry_equiv_pos_as_xyz
  1  'x, y, z'
loop_
 _atom_site_type_symbol
 _atom_site_label
 _atom_site_symmetry_multiplicity
 _atom_site_fract_x
 _atom_site_fract_y
 _atom_site_fract_z
 _atom_site_occupancy
  Li  Li0  1  0.673706  0.326294  0.750000  1
  Li  Li1  1  0.326294  0.673706  0.250000  1
  Mn  Mn2  1  0.000000  0.000000  0.000000  1
  Mn  Mn3  1  0.000000  0.000000  0.500000  1
  Si  Si4  1  0.653607  0.346393  0.250000  1
  Si  Si5  1  0.346393  0.653607  0.750000  1
  O  O6  1  0.234767  0.289728  0.750000  1
  O  O7  1  0.289728  0.234767  0.250000  1
  O  O8  1  0.766927  0.233073  0.036480  1
  O  O9  1  0.766927  0.233073  0.463520  1
  O  O10  1  0.233073  0.766927  0.536480  1
  O  O11  1  0.233073  0.766927  0.963520  1
  O  O12  1  0.710272  0.765233  0.750000  1
  O  O13  1  0.765233  0.710272  0.250000  1
