# generated using pymatgen
data_Fe5(OF4)2
_symmetry_space_group_name_H-M   'P 1'
_cell_length_a   4.85217992
_cell_length_b   7.96447113
_cell_length_c   10.04068318
_cell_angle_alpha   70.77380905
_cell_angle_beta   88.65271623
_cell_angle_gamma   88.39466085
_symmetry_Int_Tables_number   1
_chemical_formula_structural   Fe5(OF4)2
_chemical_formula_sum   'Fe10 O4 F16'
_cell_volume   366.19531148
_cell_formula_units_Z   2
loop_
 _symmetry_equiv_pos_site_id
 _symmetry_equiv_pos_as_xyz
  1  'x, y, z'
loop_
 _atom_site_type_symbol
 _atom_site_label
 _atom_site_symmetry_multiplicity
 _atom_site_fract_x
 _atom_site_fract_y
 _atom_site_fract_z
 _atom_site_occupancy
  Fe  Fe0  1  0.515184  0.702359  0.893410  1
  Fe  Fe1  1  0.496288  0.899305  0.304387  1
  Fe  Fe2  1  0.515024  0.093683  0.693115  1
  Fe  Fe3  1  0.448594  0.289414  0.099213  1
  Fe  Fe4  1  0.516604  0.504651  0.492184  1
  Fe  Fe5  1  0.017490  0.389116  0.808485  1
  Fe  Fe6  1  0.973507  0.803048  0.616526  1
  Fe  Fe7  1  0.022874  0.194872  0.387159  1
  Fe  Fe8  1  0.965053  0.609300  0.209998  1
  Fe  Fe9  1  0.018840  0.013249  0.995863  1
  O  O10  1  0.201589  0.245698  0.981149  1
  O  O11  1  0.320347  0.128005  0.278682  1
  O  O12  1  0.701127  0.859506  0.722301  1
  O  O13  1  0.690462  0.679107  0.316349  1
  F  F14  1  0.187019  0.025858  0.581990  1
  F  F15  1  0.182687  0.454499  0.370053  1
  F  F16  1  0.199277  0.644079  0.775789  1
  F  F17  1  0.203592  0.824918  0.187489  1
  F  F18  1  0.302771  0.936701  0.878621  1
  F  F19  1  0.318756  0.339331  0.665067  1
  F  F20  1  0.287008  0.537229  0.088827  1
  F  F21  1  0.288820  0.750877  0.481312  1
  F  F22  1  0.713951  0.257017  0.508017  1
  F  F23  1  0.698487  0.057688  0.125244  1
  F  F24  1  0.680209  0.447250  0.935145  1
  F  F25  1  0.823858  0.563228  0.624486  1
  F  F26  1  0.800013  0.946609  0.426166  1
  F  F27  1  0.797310  0.163276  0.816615  1
  F  F28  1  0.818905  0.759436  0.025354  1
  F  F29  1  0.794353  0.380691  0.211002  1
