# generated using pymatgen
data_NaCeO2
_symmetry_space_group_name_H-M   'P 1'
_cell_length_a   5.98024454
_cell_length_b   5.98024454
_cell_length_c   5.98024454
_cell_angle_alpha   34.79778813
_cell_angle_beta   34.79778813
_cell_angle_gamma   34.79778813
_symmetry_Int_Tables_number   1
_chemical_formula_structural   NaCeO2
_chemical_formula_sum   'Na1 Ce1 O2'
_cell_volume   62.17112783
_cell_formula_units_Z   1
loop_
 _symmetry_equiv_pos_site_id
 _symmetry_equiv_pos_as_xyz
  1  'x, y, z'
loop_
 _atom_site_type_symbol
 _atom_site_label
 _atom_site_symmetry_multiplicity
 _atom_site_fract_x
 _atom_site_fract_y
 _atom_site_fract_z
 _atom_site_occupancy
  Na  Na0  1  0.000000  0.000000  0.000000  1
  Ce  Ce1  1  0.500000  0.500000  0.500000  1
  O  O2  1  0.760381  0.760381  0.760381  1
  O  O3  1  0.239619  0.239619  0.239619  1
