# generated using pymatgen
data_Li4Cr3Fe5O16
_symmetry_space_group_name_H-M   'P 1'
_cell_length_a   5.88893179
_cell_length_b   5.90102961
_cell_length_c   9.56526352
_cell_angle_alpha   89.98854667
_cell_angle_beta   90.56084814
_cell_angle_gamma   119.57893165
_symmetry_Int_Tables_number   1
_chemical_formula_structural   Li4Cr3Fe5O16
_chemical_formula_sum   'Li4 Cr3 Fe5 O16'
_cell_volume   289.06267980
_cell_formula_units_Z   1
loop_
 _symmetry_equiv_pos_site_id
 _symmetry_equiv_pos_as_xyz
  1  'x, y, z'
loop_
 _atom_site_type_symbol
 _atom_site_label
 _atom_site_symmetry_multiplicity
 _atom_site_fract_x
 _atom_site_fract_y
 _atom_site_fract_z
 _atom_site_occupancy
  Li  Li0  1  0.329881  0.668233  0.892450  1
  Li  Li1  1  0.003970  0.999706  0.996317  1
  Li  Li2  1  0.004400  0.000430  0.496204  1
  Li  Li3  1  0.663867  0.332224  0.394212  1
  Cr  Cr4  1  0.173843  0.831717  0.218266  1
  Cr  Cr5  1  0.165154  0.335266  0.211548  1
  Cr  Cr6  1  0.344654  0.169962  0.715055  1
  Fe  Fe7  1  0.331346  0.660566  0.492211  1
  Fe  Fe8  1  0.660129  0.824170  0.213088  1
  Fe  Fe9  1  0.668229  0.341568  0.989668  1
  Fe  Fe10  1  0.832139  0.663019  0.714695  1
  Fe  Fe11  1  0.832979  0.169724  0.713045  1
  O  O12  1  0.166967  0.835332  0.600702  1
  O  O13  1  0.037599  0.512352  0.334046  1
  O  O14  1  0.318434  0.666327  0.105042  1
  O  O15  1  0.007968  0.998712  0.309193  1
  O  O16  1  0.016190  0.009072  0.810117  1
  O  O17  1  0.172734  0.324862  0.599771  1
  O  O18  1  0.468013  0.958669  0.338811  1
  O  O19  1  0.472259  0.512215  0.335038  1
  O  O20  1  0.327547  0.174225  0.106766  1
  O  O21  1  0.677789  0.833873  0.600141  1
  O  O22  1  0.515870  0.481697  0.837731  1
  O  O23  1  0.506350  0.038744  0.839321  1
  O  O24  1  0.651203  0.325742  0.603422  1
  O  O25  1  0.846328  0.677237  0.099877  1
  O  O26  1  0.960094  0.484022  0.837808  1
  O  O27  1  0.844065  0.170634  0.103297  1
