# generated using pymatgen
data_LiCoBO3
_symmetry_space_group_name_H-M   'P 1'
_cell_length_a   8.17101681
_cell_length_b   8.17101681
_cell_length_c   3.07066795
_cell_angle_alpha   90.00000000
_cell_angle_beta   90.00000000
_cell_angle_gamma   120.00000000
_symmetry_Int_Tables_number   1
_chemical_formula_structural   LiCoBO3
_chemical_formula_sum   'Li3 Co3 B3 O9'
_cell_volume   177.54796359
_cell_formula_units_Z   3
loop_
 _symmetry_equiv_pos_site_id
 _symmetry_equiv_pos_as_xyz
  1  'x, y, z'
loop_
 _atom_site_type_symbol
 _atom_site_label
 _atom_site_symmetry_multiplicity
 _atom_site_fract_x
 _atom_site_fract_y
 _atom_site_fract_z
 _atom_site_occupancy
  Li  Li0  1  0.283113  0.980378  0.500000  1
  Li  Li1  1  0.019622  0.302735  0.500000  1
  Li  Li2  1  0.697265  0.716887  0.500000  1
  Co  Co3  1  0.371357  0.360329  0.000000  1
  Co  Co4  1  0.639671  0.011028  0.000000  1
  Co  Co5  1  0.988972  0.628643  0.000000  1
  B  B6  1  0.333333  0.666667  0.500000  1
  B  B7  1  0.000000  0.000000  0.000000  1
  B  B8  1  0.666667  0.333333  0.500000  1
  O  O9  1  0.106506  0.910368  0.000000  1
  O  O10  1  0.138285  0.585050  0.500000  1
  O  O11  1  0.089632  0.196139  0.000000  1
  O  O12  1  0.446764  0.861715  0.500000  1
  O  O13  1  0.414950  0.553236  0.500000  1
  O  O14  1  0.470959  0.253238  0.500000  1
  O  O15  1  0.803861  0.893494  0.000000  1
  O  O16  1  0.782278  0.529041  0.500000  1
  O  O17  1  0.746762  0.217722  0.500000  1
