# generated using pymatgen
data_Li2MnF4
_symmetry_space_group_name_H-M   'P 1'
_cell_length_a   6.09116001
_cell_length_b   6.09116001
_cell_length_c   6.09116001
_cell_angle_alpha   60.00000000
_cell_angle_beta   60.00000000
_cell_angle_gamma   60.00000000
_symmetry_Int_Tables_number   1
_chemical_formula_structural   Li2MnF4
_chemical_formula_sum   'Li4 Mn2 F8'
_cell_volume   159.80303651
_cell_formula_units_Z   2
loop_
 _symmetry_equiv_pos_site_id
 _symmetry_equiv_pos_as_xyz
  1  'x, y, z'
loop_
 _atom_site_type_symbol
 _atom_site_label
 _atom_site_symmetry_multiplicity
 _atom_site_fract_x
 _atom_site_fract_y
 _atom_site_fract_z
 _atom_site_occupancy
  Li  Li0  1  0.625000  0.625000  0.125000  1
  Li  Li1  1  0.125000  0.625000  0.625000  1
  Li  Li2  1  0.625000  0.625000  0.625000  1
  Li  Li3  1  0.625000  0.125000  0.625000  1
  Mn  Mn4  1  0.250000  0.250000  0.250000  1
  Mn  Mn5  1  1.000000  1.000000  1.000000  1
  F  F6  1  0.864553  0.864553  0.406340  1
  F  F7  1  0.864553  0.864553  0.864553  1
  F  F8  1  0.406340  0.864553  0.864553  1
  F  F9  1  0.864553  0.406340  0.864553  1
  F  F10  1  0.385447  0.843660  0.385447  1
  F  F11  1  0.843660  0.385447  0.385447  1
  F  F12  1  0.385447  0.385447  0.385447  1
  F  F13  1  0.385447  0.385447  0.843660  1
