# generated using pymatgen
data_Zr2N2O
_symmetry_space_group_name_H-M   'P 1'
_cell_length_a   8.86510835
_cell_length_b   8.87993581
_cell_length_c   8.88031520
_cell_angle_alpha   109.49253697
_cell_angle_beta   109.35391945
_cell_angle_gamma   109.51957562
_symmetry_Int_Tables_number   1
_chemical_formula_structural   Zr2N2O
_chemical_formula_sum   'Zr16 N16 O8'
_cell_volume   538.46143480
_cell_formula_units_Z   8
loop_
 _symmetry_equiv_pos_site_id
 _symmetry_equiv_pos_as_xyz
  1  'x, y, z'
loop_
 _atom_site_type_symbol
 _atom_site_label
 _atom_site_symmetry_multiplicity
 _atom_site_fract_x
 _atom_site_fract_y
 _atom_site_fract_z
 _atom_site_occupancy
  Zr  Zr0  1  0.003537  0.001390  0.498926  1
  Zr  Zr1  1  0.752456  0.783184  0.955823  1
  Zr  Zr2  1  0.968153  0.246484  0.780093  1
  Zr  Zr3  1  0.531573  0.747688  0.708396  1
  Zr  Zr4  1  0.712144  0.459971  0.756850  1
  Zr  Zr5  1  0.219924  0.968370  0.750141  1
  Zr  Zr6  1  0.749588  0.288059  0.464459  1
  Zr  Zr7  1  0.001062  0.489874  0.010425  1
  Zr  Zr8  1  0.494133  0.497913  0.490749  1
  Zr  Zr9  1  0.494622  0.011052  0.997975  1
  Zr  Zr10  1  0.257961  0.713539  0.532212  1
  Zr  Zr11  1  0.281759  0.534000  0.254589  1
  Zr  Zr12  1  0.785792  0.036599  0.246295  1
  Zr  Zr13  1  0.045949  0.756910  0.213393  1
  Zr  Zr14  1  0.469204  0.258460  0.282112  1
  Zr  Zr15  1  0.238245  0.207036  0.046442  1
  N  N16  1  0.769555  0.725466  0.740360  1
  N  N17  1  0.984335  0.950663  0.278288  1
  N  N18  1  0.273177  0.739519  0.773795  1
  N  N19  1  0.536036  0.772440  0.455929  1
  N  N20  1  0.741305  0.226593  0.726300  1
  N  N21  1  0.549443  0.538191  0.225509  1
  N  N22  1  0.264370  0.777481  0.272342  1
  N  N23  1  0.047963  0.275715  0.983224  1
  N  N24  1  0.270035  0.006714  0.957602  1
  N  N25  1  0.465024  0.228403  0.545090  1
  N  N26  1  0.227461  0.456796  0.534385  1
  N  N27  1  0.728078  0.257547  0.227784  1
  N  N28  1  0.513894  0.242476  0.029767  1
  N  N29  1  0.011132  0.042218  0.730120  1
  N  N30  1  0.031120  0.491382  0.238510  1
  N  N31  1  0.223925  0.269824  0.265964  1
  O  O32  1  0.964815  0.514608  0.760434  1
  O  O33  1  0.493049  0.764850  0.964758  1
  O  O34  1  0.769253  0.543032  0.469705  1
  O  O35  1  0.724883  0.984563  0.047549  1
  O  O36  1  0.235325  0.964178  0.488984  1
  O  O37  1  0.951203  0.725218  0.011832  1
  O  O38  1  0.457801  0.468101  0.770210  1
  O  O39  1  0.760712  0.033492  0.512680  1
