# generated using pymatgen
data_Li4Nb3Cu3(SnO8)2
_symmetry_space_group_name_H-M   'P 1'
_cell_length_a   6.22391787
_cell_length_b   6.22391787
_cell_length_c   10.00304950
_cell_angle_alpha   87.38213323
_cell_angle_beta   92.61786677
_cell_angle_gamma   121.45515591
_symmetry_Int_Tables_number   1
_chemical_formula_structural   Li4Nb3Cu3(SnO8)2
_chemical_formula_sum   'Li4 Nb3 Cu3 Sn2 O16'
_cell_volume   330.09418021
_cell_formula_units_Z   1
loop_
 _symmetry_equiv_pos_site_id
 _symmetry_equiv_pos_as_xyz
  1  'x, y, z'
loop_
 _atom_site_type_symbol
 _atom_site_label
 _atom_site_symmetry_multiplicity
 _atom_site_fract_x
 _atom_site_fract_y
 _atom_site_fract_z
 _atom_site_occupancy
  Li  Li0  1  0.669740  0.330260  0.086718  1
  Li  Li1  1  0.001749  0.998251  0.002453  1
  Li  Li2  1  0.022966  0.977034  0.521685  1
  Li  Li3  1  0.343156  0.656844  0.612907  1
  Nb  Nb4  1  0.830243  0.169757  0.780640  1
  Nb  Nb5  1  0.658122  0.837843  0.287042  1
  Nb  Nb6  1  0.162157  0.341878  0.287042  1
  Cu  Cu7  1  0.828799  0.657811  0.791508  1
  Cu  Cu8  1  0.342189  0.171201  0.791508  1
  Cu  Cu9  1  0.176631  0.823369  0.282416  1
  Sn  Sn10  1  0.651743  0.348257  0.522158  1
  Sn  Sn11  1  0.317368  0.682632  0.999369  1
  O  O12  1  0.821480  0.678796  0.403857  1
  O  O13  1  0.522461  0.477539  0.666521  1
  O  O14  1  0.673652  0.326348  0.888388  1
  O  O15  1  0.999316  0.000684  0.704521  1
  O  O16  1  0.989751  0.010249  0.191538  1
  O  O17  1  0.321204  0.178520  0.403857  1
  O  O18  1  0.975291  0.454622  0.641939  1
  O  O19  1  0.545378  0.024709  0.641939  1
  O  O20  1  0.149022  0.850978  0.905304  1
  O  O21  1  0.833025  0.166975  0.389873  1
  O  O22  1  0.500492  0.963202  0.153348  1
  O  O23  1  0.036798  0.499508  0.153348  1
  O  O24  1  0.355493  0.644507  0.403021  1
  O  O25  1  0.655257  0.861508  0.905448  1
  O  O26  1  0.477899  0.522101  0.168208  1
  O  O27  1  0.138492  0.344743  0.905448  1
