# generated using pymatgen
data_Na2H4(SO4)3
_symmetry_space_group_name_H-M   'P 1'
_cell_length_a   7.00258402
_cell_length_b   10.26211851
_cell_length_c   14.15360287
_cell_angle_alpha   90.00000000
_cell_angle_beta   90.00000000
_cell_angle_gamma   90.00000000
_symmetry_Int_Tables_number   1
_chemical_formula_structural   Na2H4(SO4)3
_chemical_formula_sum   'Na8 H16 S12 O48'
_cell_volume   1017.09696841
_cell_formula_units_Z   4
loop_
 _symmetry_equiv_pos_site_id
 _symmetry_equiv_pos_as_xyz
  1  'x, y, z'
loop_
 _atom_site_type_symbol
 _atom_site_label
 _atom_site_symmetry_multiplicity
 _atom_site_fract_x
 _atom_site_fract_y
 _atom_site_fract_z
 _atom_site_occupancy
  Na  Na0  1  0.615411  0.840919  0.496967  1
  Na  Na1  1  0.384589  0.159081  0.996967  1
  Na  Na2  1  0.115411  0.659081  0.996967  1
  Na  Na3  1  0.884589  0.340919  0.496967  1
  Na  Na4  1  0.258173  0.630725  0.641337  1
  Na  Na5  1  0.741827  0.369275  0.141337  1
  Na  Na6  1  0.758173  0.869275  0.141337  1
  Na  Na7  1  0.241827  0.130725  0.641337  1
  H  H8  1  0.451001  0.757117  0.820065  1
  H  H9  1  0.548999  0.242883  0.320065  1
  H  H10  1  0.951001  0.742883  0.320065  1
  H  H11  1  0.048999  0.257117  0.820065  1
  H  H12  1  0.085663  0.060270  0.442921  1
  H  H13  1  0.914337  0.939730  0.942921  1
  H  H14  1  0.585663  0.439730  0.942921  1
  H  H15  1  0.414337  0.560270  0.442921  1
  H  H16  1  0.917081  0.961899  0.735020  1
  H  H17  1  0.082919  0.038101  0.235020  1
  H  H18  1  0.417081  0.538101  0.235020  1
  H  H19  1  0.582919  0.461899  0.735020  1
  H  H20  1  0.672385  0.178505  0.792874  1
  H  H21  1  0.327615  0.821495  0.292874  1
  H  H22  1  0.172385  0.321495  0.292874  1
  H  H23  1  0.827615  0.678505  0.792874  1
  S  S24  1  0.225768  0.906689  0.828208  1
  S  S25  1  0.774232  0.093311  0.328208  1
  S  S26  1  0.725768  0.593311  0.328208  1
  S  S27  1  0.274232  0.406689  0.828208  1
  S  S28  1  0.132705  0.854354  0.473428  1
  S  S29  1  0.867295  0.145646  0.973428  1
  S  S30  1  0.632705  0.645646  0.973428  1
  S  S31  1  0.367295  0.354354  0.473428  1
  S  S32  1  0.707321  0.078667  0.662677  1
  S  S33  1  0.292679  0.921333  0.162677  1
  S  S34  1  0.207321  0.421333  0.162677  1
  S  S35  1  0.792679  0.578667  0.662677  1
  O  O36  1  0.360756  0.991706  0.874977  1
  O  O37  1  0.639244  0.008294  0.374977  1
  O  O38  1  0.860756  0.508294  0.374977  1
  O  O39  1  0.139244  0.491706  0.874977  1
  O  O40  1  0.131682  0.967032  0.745050  1
  O  O41  1  0.868318  0.032968  0.245050  1
  O  O42  1  0.631682  0.532968  0.245050  1
  O  O43  1  0.368318  0.467032  0.745050  1
  O  O44  1  0.081637  0.847750  0.891596  1
  O  O45  1  0.918363  0.152250  0.391596  1
  O  O46  1  0.581637  0.652250  0.391596  1
  O  O47  1  0.418363  0.347750  0.891596  1
  O  O48  1  0.339242  0.788914  0.780891  1
  O  O49  1  0.660758  0.211086  0.280891  1
  O  O50  1  0.839242  0.711086  0.280891  1
  O  O51  1  0.160758  0.288914  0.780891  1
  O  O52  1  0.288783  0.798130  0.528845  1
  O  O53  1  0.711217  0.201870  0.028845  1
  O  O54  1  0.788783  0.701870  0.028845  1
  O  O55  1  0.211217  0.298130  0.528845  1
  O  O56  1  0.140784  0.815481  0.372038  1
  O  O57  1  0.859216  0.184519  0.872038  1
  O  O58  1  0.640784  0.684519  0.872038  1
  O  O59  1  0.359216  0.315481  0.372038  1
  O  O60  1  0.943677  0.833544  0.513153  1
  O  O61  1  0.056323  0.166456  0.013153  1
  O  O62  1  0.443677  0.666456  0.013153  1
  O  O63  1  0.556323  0.333544  0.513153  1
  O  O64  1  0.182113  0.005843  0.478609  1
  O  O65  1  0.817887  0.994157  0.978609  1
  O  O66  1  0.682113  0.494157  0.978609  1
  O  O67  1  0.317887  0.505843  0.478609  1
  O  O68  1  0.874245  0.146508  0.627649  1
  O  O69  1  0.125755  0.853492  0.127649  1
  O  O70  1  0.374245  0.353492  0.127649  1
  O  O71  1  0.625755  0.646508  0.627649  1
  O  O72  1  0.565146  0.036305  0.595511  1
  O  O73  1  0.434854  0.963695  0.095511  1
  O  O74  1  0.065146  0.463695  0.095511  1
  O  O75  1  0.934854  0.536305  0.595511  1
  O  O76  1  0.769957  0.961417  0.723991  1
  O  O77  1  0.230043  0.038583  0.223991  1
  O  O78  1  0.269957  0.538583  0.223991  1
  O  O79  1  0.730043  0.461417  0.723991  1
  O  O80  1  0.592677  0.166415  0.733794  1
  O  O81  1  0.407323  0.833585  0.233794  1
  O  O82  1  0.092677  0.333585  0.233794  1
  O  O83  1  0.907323  0.666415  0.733794  1
