# generated using pymatgen
data_LiMnF3
_symmetry_space_group_name_H-M   'P 1'
_cell_length_a   7.24248755
_cell_length_b   7.16530129
_cell_length_c   15.56412070
_cell_angle_alpha   90.00000000
_cell_angle_beta   95.89126579
_cell_angle_gamma   90.00000000
_symmetry_Int_Tables_number   1
_chemical_formula_structural   LiMnF3
_chemical_formula_sum   'Li12 Mn12 F36'
_cell_volume   803.42804596
_cell_formula_units_Z   12
loop_
 _symmetry_equiv_pos_site_id
 _symmetry_equiv_pos_as_xyz
  1  'x, y, z'
loop_
 _atom_site_type_symbol
 _atom_site_label
 _atom_site_symmetry_multiplicity
 _atom_site_fract_x
 _atom_site_fract_y
 _atom_site_fract_z
 _atom_site_occupancy
  Li  Li0  1  0.245390  0.614338  0.916070  1
  Li  Li1  1  0.240639  0.135128  0.913825  1
  Li  Li2  1  0.450200  0.873382  0.795128  1
  Li  Li3  1  0.549800  0.373382  0.704872  1
  Li  Li4  1  0.759361  0.635128  0.586175  1
  Li  Li5  1  0.754610  0.114338  0.583930  1
  Li  Li6  1  0.245390  0.885662  0.416070  1
  Li  Li7  1  0.240639  0.364872  0.413825  1
  Li  Li8  1  0.450200  0.626618  0.295128  1
  Li  Li9  1  0.549800  0.126618  0.204872  1
  Li  Li10  1  0.759361  0.864872  0.086175  1
  Li  Li11  1  0.754610  0.385662  0.083930  1
  Mn  Mn12  1  0.744874  0.123847  0.885680  1
  Mn  Mn13  1  0.751720  0.631657  0.893239  1
  Mn  Mn14  1  0.040962  0.374182  0.769178  1
  Mn  Mn15  1  0.959038  0.874182  0.730822  1
  Mn  Mn16  1  0.248280  0.131657  0.606761  1
  Mn  Mn17  1  0.255126  0.623847  0.614320  1
  Mn  Mn18  1  0.744874  0.376153  0.385680  1
  Mn  Mn19  1  0.751720  0.868343  0.393239  1
  Mn  Mn20  1  0.040962  0.125818  0.269178  1
  Mn  Mn21  1  0.959038  0.625818  0.230822  1
  Mn  Mn22  1  0.248280  0.368343  0.106761  1
  Mn  Mn23  1  0.255126  0.876153  0.114320  1
  F  F24  1  0.787397  0.887434  0.967784  1
  F  F25  1  0.767375  0.369614  0.963661  1
  F  F26  1  0.184004  0.375939  0.891832  1
  F  F27  1  0.011788  0.675115  0.840415  1
  F  F28  1  0.467927  0.666602  0.871576  1
  F  F29  1  0.011063  0.081667  0.834070  1
  F  F30  1  0.460630  0.084450  0.867446  1
  F  F31  1  0.707307  0.875386  0.789107  1
  F  F32  1  0.749844  0.376083  0.793424  1
  F  F33  1  0.250156  0.876083  0.706576  1
  F  F34  1  0.292693  0.375386  0.710893  1
  F  F35  1  0.539370  0.584450  0.632554  1
  F  F36  1  0.988937  0.581667  0.665930  1
  F  F37  1  0.532073  0.166602  0.628424  1
  F  F38  1  0.988212  0.175115  0.659585  1
  F  F39  1  0.815996  0.875939  0.608168  1
  F  F40  1  0.232625  0.869614  0.536339  1
  F  F41  1  0.212603  0.387434  0.532216  1
  F  F42  1  0.787397  0.612566  0.467784  1
  F  F43  1  0.767375  0.130386  0.463661  1
  F  F44  1  0.184004  0.124061  0.391832  1
  F  F45  1  0.011788  0.824885  0.340415  1
  F  F46  1  0.467927  0.833398  0.371576  1
  F  F47  1  0.011063  0.418333  0.334070  1
  F  F48  1  0.460630  0.415550  0.367446  1
  F  F49  1  0.707307  0.624614  0.289107  1
  F  F50  1  0.749844  0.123917  0.293424  1
  F  F51  1  0.250156  0.623917  0.206576  1
  F  F52  1  0.292693  0.124614  0.210893  1
  F  F53  1  0.539370  0.915550  0.132554  1
  F  F54  1  0.988937  0.918333  0.165930  1
  F  F55  1  0.532073  0.333398  0.128424  1
  F  F56  1  0.988212  0.324885  0.159585  1
  F  F57  1  0.815996  0.624061  0.108168  1
  F  F58  1  0.232625  0.630386  0.036339  1
  F  F59  1  0.212603  0.112566  0.032216  1
