# generated using pymatgen
data_Li5LaO4
_symmetry_space_group_name_H-M   'P 1'
_cell_length_a   9.08640159
_cell_length_b   9.53464066
_cell_length_c   10.03408510
_cell_angle_alpha   90.00000000
_cell_angle_beta   90.00000000
_cell_angle_gamma   90.00000000
_symmetry_Int_Tables_number   1
_chemical_formula_structural   Li5LaO4
_chemical_formula_sum   'Li40 La8 O32'
_cell_volume   869.30872274
_cell_formula_units_Z   8
loop_
 _symmetry_equiv_pos_site_id
 _symmetry_equiv_pos_as_xyz
  1  'x, y, z'
loop_
 _atom_site_type_symbol
 _atom_site_label
 _atom_site_symmetry_multiplicity
 _atom_site_fract_x
 _atom_site_fract_y
 _atom_site_fract_z
 _atom_site_occupancy
  Li  Li0  1  0.126955  0.568535  0.130942  1
  Li  Li1  1  0.126955  0.931465  0.630942  1
  Li  Li2  1  0.125325  0.132888  0.863805  1
  Li  Li3  1  0.125325  0.367112  0.363805  1
  Li  Li4  1  0.128854  0.877157  0.405930  1
  Li  Li5  1  0.128854  0.622843  0.905930  1
  Li  Li6  1  0.136646  0.848636  0.144429  1
  Li  Li7  1  0.136646  0.651364  0.644429  1
  Li  Li8  1  0.186759  0.124365  0.424484  1
  Li  Li9  1  0.186759  0.375635  0.924484  1
  Li  Li10  1  0.313241  0.875635  0.924484  1
  Li  Li11  1  0.313241  0.624365  0.424484  1
  Li  Li12  1  0.363354  0.151364  0.644429  1
  Li  Li13  1  0.363354  0.348636  0.144429  1
  Li  Li14  1  0.371146  0.122843  0.905930  1
  Li  Li15  1  0.371146  0.377157  0.405930  1
  Li  Li16  1  0.374675  0.632888  0.863805  1
  Li  Li17  1  0.374675  0.867112  0.363805  1
  Li  Li18  1  0.373045  0.068535  0.130942  1
  Li  Li19  1  0.373045  0.431465  0.630942  1
  Li  Li20  1  0.626955  0.568535  0.369058  1
  Li  Li21  1  0.626955  0.931465  0.869058  1
  Li  Li22  1  0.625325  0.132888  0.636195  1
  Li  Li23  1  0.625325  0.367112  0.136195  1
  Li  Li24  1  0.628854  0.622843  0.594070  1
  Li  Li25  1  0.628854  0.877157  0.094070  1
  Li  Li26  1  0.636646  0.651364  0.855571  1
  Li  Li27  1  0.636646  0.848636  0.355571  1
  Li  Li28  1  0.686759  0.124365  0.075516  1
  Li  Li29  1  0.686759  0.375635  0.575516  1
  Li  Li30  1  0.813241  0.624365  0.075516  1
  Li  Li31  1  0.813241  0.875635  0.575516  1
  Li  Li32  1  0.863354  0.348636  0.355571  1
  Li  Li33  1  0.863354  0.151364  0.855571  1
  Li  Li34  1  0.871146  0.122843  0.594070  1
  Li  Li35  1  0.871146  0.377157  0.094070  1
  Li  Li36  1  0.874675  0.632888  0.636195  1
  Li  Li37  1  0.874675  0.867112  0.136195  1
  Li  Li38  1  0.873045  0.068535  0.369058  1
  Li  Li39  1  0.873045  0.431465  0.869058  1
  La  La40  1  0.051813  0.159327  0.155646  1
  La  La41  1  0.051813  0.340673  0.655646  1
  La  La42  1  0.448187  0.659327  0.155646  1
  La  La43  1  0.448187  0.840673  0.655646  1
  La  La44  1  0.551813  0.159327  0.344354  1
  La  La45  1  0.551813  0.340673  0.844354  1
  La  La46  1  0.948187  0.659327  0.344354  1
  La  La47  1  0.948187  0.840673  0.844354  1
  O  O48  1  0.998001  0.219441  0.454910  1
  O  O49  1  0.998001  0.280559  0.954910  1
  O  O50  1  0.002151  0.948715  0.266415  1
  O  O51  1  0.002151  0.551285  0.766415  1
  O  O52  1  0.211267  0.022611  0.012599  1
  O  O53  1  0.211267  0.477389  0.512599  1
  O  O54  1  0.272175  0.224408  0.278216  1
  O  O55  1  0.272175  0.275592  0.778216  1
  O  O56  1  0.227825  0.724408  0.278216  1
  O  O57  1  0.227825  0.775592  0.778216  1
  O  O58  1  0.288733  0.522611  0.012599  1
  O  O59  1  0.288733  0.977389  0.512599  1
  O  O60  1  0.497849  0.448715  0.266415  1
  O  O61  1  0.497849  0.051285  0.766415  1
  O  O62  1  0.501999  0.719441  0.454910  1
  O  O63  1  0.501999  0.780559  0.954910  1
  O  O64  1  0.498001  0.219441  0.045090  1
  O  O65  1  0.498001  0.280559  0.545090  1
  O  O66  1  0.502151  0.948715  0.233585  1
  O  O67  1  0.502151  0.551285  0.733585  1
  O  O68  1  0.711267  0.022611  0.487401  1
  O  O69  1  0.711267  0.477389  0.987401  1
  O  O70  1  0.772175  0.224408  0.221784  1
  O  O71  1  0.772175  0.275592  0.721784  1
  O  O72  1  0.727825  0.724408  0.221784  1
  O  O73  1  0.727825  0.775592  0.721784  1
  O  O74  1  0.788733  0.977389  0.987401  1
  O  O75  1  0.788733  0.522611  0.487401  1
  O  O76  1  0.997849  0.051285  0.733585  1
  O  O77  1  0.997849  0.448715  0.233585  1
  O  O78  1  0.001999  0.719441  0.045090  1
  O  O79  1  0.001999  0.780559  0.545090  1
