# generated using pymatgen
data_Li4VO3F2
_symmetry_space_group_name_H-M   'P 1'
_cell_length_a   5.41868760
_cell_length_b   5.41868760
_cell_length_c   7.98627708
_cell_angle_alpha   81.73267255
_cell_angle_beta   98.26732745
_cell_angle_gamma   113.57683658
_symmetry_Int_Tables_number   1
_chemical_formula_structural   Li4VO3F2
_chemical_formula_sum   'Li8 V2 O6 F4'
_cell_volume   211.72200840
_cell_formula_units_Z   2
loop_
 _symmetry_equiv_pos_site_id
 _symmetry_equiv_pos_as_xyz
  1  'x, y, z'
loop_
 _atom_site_type_symbol
 _atom_site_label
 _atom_site_symmetry_multiplicity
 _atom_site_fract_x
 _atom_site_fract_y
 _atom_site_fract_z
 _atom_site_occupancy
  Li  Li0  1  0.629227  0.026509  0.365377  1
  Li  Li1  1  0.973491  0.370773  0.865377  1
  Li  Li2  1  0.746027  0.569295  0.441803  1
  Li  Li3  1  0.430705  0.253973  0.941803  1
  Li  Li4  1  0.569295  0.746027  0.058197  1
  Li  Li5  1  0.253973  0.430705  0.558197  1
  Li  Li6  1  0.026509  0.629227  0.134623  1
  Li  Li7  1  0.370773  0.973491  0.634623  1
  V  V8  1  0.160991  0.160991  0.250000  1
  V  V9  1  0.839009  0.839009  0.750000  1
  O  O10  1  0.421071  0.234298  0.429753  1
  O  O11  1  0.765702  0.578929  0.929753  1
  O  O12  1  0.862590  0.862590  0.250000  1
  O  O13  1  0.137410  0.137410  0.750000  1
  O  O14  1  0.234298  0.421071  0.070247  1
  O  O15  1  0.578929  0.765702  0.570247  1
  F  F16  1  0.974675  0.363828  0.350753  1
  F  F17  1  0.636172  0.025325  0.850753  1
  F  F18  1  0.363828  0.974675  0.149247  1
  F  F19  1  0.025325  0.636172  0.649247  1
