# generated using pymatgen
data_Mn(IO3)2
_symmetry_space_group_name_H-M   'P 1'
_cell_length_a   5.50819573
_cell_length_b   5.80007486
_cell_length_c   17.41403740
_cell_angle_alpha   90.00000000
_cell_angle_beta   90.00000000
_cell_angle_gamma   90.00000000
_symmetry_Int_Tables_number   1
_chemical_formula_structural   Mn(IO3)2
_chemical_formula_sum   'Mn4 I8 O24'
_cell_volume   556.34275397
_cell_formula_units_Z   4
loop_
 _symmetry_equiv_pos_site_id
 _symmetry_equiv_pos_as_xyz
  1  'x, y, z'
loop_
 _atom_site_type_symbol
 _atom_site_label
 _atom_site_symmetry_multiplicity
 _atom_site_fract_x
 _atom_site_fract_y
 _atom_site_fract_z
 _atom_site_occupancy
  Mn  Mn0  1  0.709574  0.170278  0.093940  1
  Mn  Mn1  1  0.209574  0.329722  0.906060  1
  Mn  Mn2  1  0.290426  0.670278  0.406060  1
  Mn  Mn3  1  0.790426  0.829722  0.593940  1
  I  I4  1  0.964912  0.137036  0.423368  1
  I  I5  1  0.253763  0.218249  0.208463  1
  I  I6  1  0.753763  0.281751  0.791537  1
  I  I7  1  0.464912  0.362964  0.576632  1
  I  I8  1  0.035088  0.637036  0.076632  1
  I  I9  1  0.746237  0.718249  0.291537  1
  I  I10  1  0.246237  0.781751  0.708463  1
  I  I11  1  0.535088  0.862964  0.923368  1
  O  O12  1  0.110378  0.999082  0.337677  1
  O  O13  1  0.036369  0.020792  0.161217  1
  O  O14  1  0.523401  0.029907  0.205096  1
  O  O15  1  0.446250  0.111375  0.984401  1
  O  O16  1  0.871579  0.125251  0.877496  1
  O  O17  1  0.725170  0.175332  0.547028  1
  O  O18  1  0.225170  0.324668  0.452972  1
  O  O19  1  0.371579  0.374749  0.122504  1
  O  O20  1  0.946250  0.388625  0.015599  1
  O  O21  1  0.023401  0.470093  0.794904  1
  O  O22  1  0.536369  0.479208  0.838783  1
  O  O23  1  0.610378  0.500918  0.662323  1
  O  O24  1  0.889622  0.499082  0.162323  1
  O  O25  1  0.963631  0.520792  0.338783  1
  O  O26  1  0.476599  0.529907  0.294904  1
  O  O27  1  0.553750  0.611375  0.515599  1
  O  O28  1  0.128421  0.625251  0.622504  1
  O  O29  1  0.274830  0.675332  0.952972  1
  O  O30  1  0.774830  0.824668  0.047028  1
  O  O31  1  0.628421  0.874749  0.377496  1
  O  O32  1  0.053750  0.888625  0.484401  1
  O  O33  1  0.976599  0.970093  0.705096  1
  O  O34  1  0.463631  0.979208  0.661217  1
  O  O35  1  0.389622  0.000918  0.837677  1
