# generated using pymatgen
data_LiNiPO4
_symmetry_space_group_name_H-M   'P 1'
_cell_length_a   8.23175248
_cell_length_b   5.03838685
_cell_length_c   8.84857954
_cell_angle_alpha   90.00000000
_cell_angle_beta   109.10074061
_cell_angle_gamma   90.00000000
_symmetry_Int_Tables_number   1
_chemical_formula_structural   LiNiPO4
_chemical_formula_sum   'Li4 Ni4 P4 O16'
_cell_volume   346.78775751
_cell_formula_units_Z   4
loop_
 _symmetry_equiv_pos_site_id
 _symmetry_equiv_pos_as_xyz
  1  'x, y, z'
loop_
 _atom_site_type_symbol
 _atom_site_label
 _atom_site_symmetry_multiplicity
 _atom_site_fract_x
 _atom_site_fract_y
 _atom_site_fract_z
 _atom_site_occupancy
  Li  Li0  1  0.107665  0.833115  0.987901  1
  Li  Li1  1  0.261756  0.317230  0.503218  1
  Li  Li2  1  0.607665  0.166885  0.987901  1
  Li  Li3  1  0.761756  0.682770  0.503218  1
  Ni  Ni4  1  0.979637  0.679069  0.240930  1
  Ni  Ni5  1  0.332272  0.816896  0.729352  1
  Ni  Ni6  1  0.479637  0.320931  0.240930  1
  Ni  Ni7  1  0.832272  0.183104  0.729352  1
  P  P8  1  0.224105  0.319276  0.862876  1
  P  P9  1  0.369617  0.813277  0.372101  1
  P  P10  1  0.724105  0.680724  0.862876  1
  P  P11  1  0.869617  0.186723  0.372101  1
  O  O12  1  0.065516  0.186542  0.888431  1
  O  O13  1  0.026504  0.330084  0.349452  1
  O  O14  1  0.191806  0.621860  0.837047  1
  O  O15  1  0.262166  0.196915  0.715812  1
  O  O16  1  0.209923  0.762047  0.221828  1
  O  O17  1  0.330646  0.697787  0.518989  1
  O  O18  1  0.565516  0.813458  0.888431  1
  O  O19  1  0.408929  0.114546  0.399813  1
  O  O20  1  0.383258  0.262058  0.011050  1
  O  O21  1  0.526504  0.669916  0.349452  1
  O  O22  1  0.691806  0.378140  0.837047  1
  O  O23  1  0.762166  0.803085  0.715812  1
  O  O24  1  0.709923  0.237953  0.221828  1
  O  O25  1  0.830646  0.302213  0.518989  1
  O  O26  1  0.908929  0.885454  0.399813  1
  O  O27  1  0.883258  0.737942  0.011050  1
