# generated using pymatgen
data_Li6Fe2P(CO4)4
_symmetry_space_group_name_H-M   'P 1'
_cell_length_a   9.45578074
_cell_length_b   9.45578074
_cell_length_c   9.43891470
_cell_angle_alpha   60.02516533
_cell_angle_beta   119.97483467
_cell_angle_gamma   90.12706423
_symmetry_Int_Tables_number   1
_chemical_formula_structural   Li6Fe2P(CO4)4
_chemical_formula_sum   'Li12 Fe4 P2 C8 O32'
_cell_volume   597.87355972
_cell_formula_units_Z   2
loop_
 _symmetry_equiv_pos_site_id
 _symmetry_equiv_pos_as_xyz
  1  'x, y, z'
loop_
 _atom_site_type_symbol
 _atom_site_label
 _atom_site_symmetry_multiplicity
 _atom_site_fract_x
 _atom_site_fract_y
 _atom_site_fract_z
 _atom_site_occupancy
  Li  Li0  1  0.178262  0.178262  0.250000  1
  Li  Li1  1  0.177259  0.570514  0.854882  1
  Li  Li2  1  0.570405  0.176828  0.248338  1
  Li  Li3  1  0.176828  0.570405  0.251662  1
  Li  Li4  1  0.426453  0.426453  0.750000  1
  Li  Li5  1  0.429486  0.822741  0.354882  1
  Li  Li6  1  0.570514  0.177259  0.645118  1
  Li  Li7  1  0.573547  0.573547  0.250000  1
  Li  Li8  1  0.429595  0.823172  0.751662  1
  Li  Li9  1  0.823172  0.429595  0.748338  1
  Li  Li10  1  0.821738  0.821738  0.750000  1
  Li  Li11  1  0.822741  0.429486  0.145118  1
  Fe  Fe12  1  1.000000  0.000000  0.500000  1
  Fe  Fe13  1  1.000000  0.000000  0.000000  1
  Fe  Fe14  1  0.000000  0.500000  0.500000  1
  Fe  Fe15  1  0.500000  0.000000  0.000000  1
  P  P16  1  0.624517  0.624517  0.750000  1
  P  P17  1  0.375483  0.375483  0.250000  1
  C  C18  1  0.163659  0.779562  0.443624  1
  C  C19  1  0.776793  0.780167  0.442584  1
  C  C20  1  0.779562  0.163659  0.056376  1
  C  C21  1  0.780167  0.776793  0.057416  1
  C  C22  1  0.219833  0.223207  0.942584  1
  C  C23  1  0.220438  0.836341  0.943624  1
  C  C24  1  0.223207  0.219833  0.557416  1
  C  C25  1  0.836341  0.220438  0.556376  1
  O  O26  1  0.825847  0.557767  0.883708  1
  O  O27  1  0.558096  0.557330  0.884405  1
  O  O28  1  0.557767  0.825847  0.616292  1
  O  O29  1  0.557330  0.558096  0.615595  1
  O  O30  1  0.159036  0.913183  0.452551  1
  O  O31  1  0.173853  0.635845  0.578813  1
  O  O32  1  0.912497  0.795469  0.569827  1
  O  O33  1  0.160083  0.796275  0.295559  1
  O  O34  1  0.796275  0.160083  0.204441  1
  O  O35  1  0.913183  0.159036  0.047449  1
  O  O36  1  0.787085  0.635902  0.459722  1
  O  O37  1  0.634906  0.909722  0.306570  1
  O  O38  1  0.909722  0.634906  0.193430  1
  O  O39  1  0.635844  0.173853  0.921187  1
  O  O40  1  0.795469  0.912497  0.930173  1
  O  O41  1  0.364098  0.212915  0.959722  1
  O  O42  1  0.635902  0.787085  0.040278  1
  O  O43  1  0.204531  0.087503  0.069827  1
  O  O44  1  0.364155  0.826147  0.078813  1
  O  O45  1  0.090278  0.365094  0.806570  1
  O  O46  1  0.365094  0.090278  0.693430  1
  O  O47  1  0.212915  0.364098  0.540278  1
  O  O48  1  0.086817  0.840964  0.952551  1
  O  O49  1  0.203725  0.839917  0.795559  1
  O  O50  1  0.839917  0.203725  0.704441  1
  O  O51  1  0.087503  0.204531  0.430173  1
  O  O52  1  0.826147  0.364156  0.421187  1
  O  O53  1  0.840964  0.086817  0.547449  1
  O  O54  1  0.442670  0.441904  0.384405  1
  O  O55  1  0.442233  0.174153  0.383708  1
  O  O56  1  0.441904  0.442670  0.115595  1
  O  O57  1  0.174153  0.442233  0.116292  1
