# generated using pymatgen
data_Li4Co(PO4)2
_symmetry_space_group_name_H-M   'P 1'
_cell_length_a   4.74125036
_cell_length_b   5.36097242
_cell_length_c   6.18501803
_cell_angle_alpha   97.67593601
_cell_angle_beta   93.85633071
_cell_angle_gamma   98.87704053
_symmetry_Int_Tables_number   1
_chemical_formula_structural   Li4Co(PO4)2
_chemical_formula_sum   'Li4 Co1 P2 O8'
_cell_volume   153.31307676
_cell_formula_units_Z   1
loop_
 _symmetry_equiv_pos_site_id
 _symmetry_equiv_pos_as_xyz
  1  'x, y, z'
loop_
 _atom_site_type_symbol
 _atom_site_label
 _atom_site_symmetry_multiplicity
 _atom_site_fract_x
 _atom_site_fract_y
 _atom_site_fract_z
 _atom_site_occupancy
  Li  Li0  1  0.162282  0.297862  0.564086  1
  Li  Li1  1  0.297397  0.566279  0.173121  1
  Li  Li2  1  0.702603  0.433721  0.826879  1
  Li  Li3  1  0.837718  0.702138  0.435914  1
  Co  Co4  1  0.000000  0.000000  0.000000  1
  P  P5  1  0.372624  0.804298  0.718649  1
  P  P6  1  0.627376  0.195702  0.281351  1
  O  O7  1  0.228079  0.626926  0.873618  1
  O  O8  1  0.260897  0.689403  0.480789  1
  O  O9  1  0.295226  0.186462  0.253662  1
  O  O10  1  0.289416  0.074905  0.778830  1
  O  O11  1  0.710584  0.925095  0.221170  1
  O  O12  1  0.704774  0.813538  0.746338  1
  O  O13  1  0.739103  0.310597  0.519211  1
  O  O14  1  0.771921  0.373074  0.126382  1
