# generated using pymatgen
data_LiCo2CuO6
_symmetry_space_group_name_H-M   'P 1'
_cell_length_a   6.64180275
_cell_length_b   6.64180275
_cell_length_c   5.79730979
_cell_angle_alpha   75.81463191
_cell_angle_beta   104.18536809
_cell_angle_gamma   155.50765127
_symmetry_Int_Tables_number   1
_chemical_formula_structural   LiCo2CuO6
_chemical_formula_sum   'Li1 Co2 Cu1 O6'
_cell_volume   102.63486459
_cell_formula_units_Z   1
loop_
 _symmetry_equiv_pos_site_id
 _symmetry_equiv_pos_as_xyz
  1  'x, y, z'
loop_
 _atom_site_type_symbol
 _atom_site_label
 _atom_site_symmetry_multiplicity
 _atom_site_fract_x
 _atom_site_fract_y
 _atom_site_fract_z
 _atom_site_occupancy
  Li  Li0  1  0.331568  0.668432  0.162114  1
  Co  Co1  1  0.997910  0.002090  0.993116  1
  Co  Co2  1  0.338658  0.661342  0.658629  1
  Cu  Cu3  1  0.662648  0.337352  0.349474  1
  O  O4  1  0.495596  0.504404  0.207636  1
  O  O5  1  0.189190  0.810810  0.572654  1
  O  O6  1  0.848072  0.151928  0.888719  1
  O  O7  1  0.149352  0.850648  0.124499  1
  O  O8  1  0.830807  0.169193  0.435418  1
  O  O9  1  0.489538  0.510462  0.774409  1
