# generated using pymatgen
data_Ba6Ti7(Sb3O14)3
_symmetry_space_group_name_H-M   'P 1'
_cell_length_a   9.13842089
_cell_length_b   9.13842089
_cell_length_c   12.12420779
_cell_angle_alpha   89.91397314
_cell_angle_beta   90.08602686
_cell_angle_gamma   60.11001391
_symmetry_Int_Tables_number   1
_chemical_formula_structural   Ba6Ti7(Sb3O14)3
_chemical_formula_sum   'Ba6 Ti7 Sb9 O42'
_cell_volume   877.81853101
_cell_formula_units_Z   1
loop_
 _symmetry_equiv_pos_site_id
 _symmetry_equiv_pos_as_xyz
  1  'x, y, z'
loop_
 _atom_site_type_symbol
 _atom_site_label
 _atom_site_symmetry_multiplicity
 _atom_site_fract_x
 _atom_site_fract_y
 _atom_site_fract_z
 _atom_site_occupancy
  Ba  Ba0  1  0.593710  0.406290  0.244874  1
  Ba  Ba1  1  0.411682  0.588318  0.750777  1
  Ba  Ba2  1  0.407552  0.001183  0.244280  1
  Ba  Ba3  1  0.595136  0.003703  0.750478  1
  Ba  Ba4  1  0.996297  0.404864  0.750478  1
  Ba  Ba5  1  0.998817  0.592448  0.244280  1
  Ti  Ti6  1  0.750250  0.249750  0.911643  1
  Ti  Ti7  1  0.751760  0.248240  0.605307  1
  Ti  Ti8  1  0.250759  0.749241  0.102525  1
  Ti  Ti9  1  0.251587  0.999607  0.603326  1
  Ti  Ti10  1  0.991670  0.252400  0.096989  1
  Ti  Ti11  1  0.747600  0.008330  0.096989  1
  Ti  Ti12  1  0.000393  0.748413  0.603326  1
  Sb  Sb13  1  0.242417  0.757583  0.413442  1
  Sb  Sb14  1  0.665947  0.667974  0.999915  1
  Sb  Sb15  1  0.667007  0.665862  0.500170  1
  Sb  Sb16  1  0.239035  0.002719  0.914242  1
  Sb  Sb17  1  0.000153  0.241184  0.411096  1
  Sb  Sb18  1  0.758816  0.999847  0.411096  1
  Sb  Sb19  1  0.332026  0.334053  0.999915  1
  Sb  Sb20  1  0.334138  0.332993  0.500170  1
  Sb  Sb21  1  0.997281  0.760965  0.914242  1
  O  O22  1  0.796470  0.203530  0.070921  1
  O  O23  1  0.797211  0.202789  0.421818  1
  O  O24  1  0.782692  0.217308  0.752433  1
  O  O25  1  0.688689  0.481570  0.601500  1
  O  O26  1  0.687998  0.481357  0.900433  1
  O  O27  1  0.214435  0.785565  0.250074  1
  O  O28  1  0.829072  0.485302  0.101853  1
  O  O29  1  0.828084  0.486691  0.394250  1
  O  O30  1  0.200114  0.799886  0.576971  1
  O  O31  1  0.203406  0.796594  0.923415  1
  O  O32  1  0.482814  0.686980  0.099656  1
  O  O33  1  0.487151  0.684288  0.394169  1
  O  O34  1  0.484584  0.829547  0.894020  1
  O  O35  1  0.481725  0.830579  0.599408  1
  O  O36  1  0.203173  0.996479  0.076463  1
  O  O37  1  0.204035  0.999491  0.423651  1
  O  O38  1  0.830875  0.687738  0.599797  1
  O  O39  1  0.828897  0.682179  0.892773  1
  O  O40  1  0.215324  0.000412  0.750954  1
  O  O41  1  0.684583  0.828094  0.394118  1
  O  O42  1  0.687611  0.833332  0.095626  1
  O  O43  1  0.000276  0.198262  0.575562  1
  O  O44  1  0.002815  0.200837  0.925766  1
  O  O45  1  0.001160  0.214040  0.247399  1
  O  O46  1  0.312262  0.169125  0.599797  1
  O  O47  1  0.317821  0.171103  0.892773  1
  O  O48  1  0.785960  0.998840  0.247399  1
  O  O49  1  0.166668  0.312389  0.095626  1
  O  O50  1  0.171906  0.315417  0.394118  1
  O  O51  1  0.801738  0.999724  0.575562  1
  O  O52  1  0.799163  0.997185  0.925766  1
  O  O53  1  0.514698  0.170928  0.101853  1
  O  O54  1  0.513309  0.171916  0.394250  1
  O  O55  1  0.518430  0.311311  0.601500  1
  O  O56  1  0.518643  0.312002  0.900433  1
  O  O57  1  0.169421  0.518275  0.599408  1
  O  O58  1  0.170453  0.515416  0.894020  1
  O  O59  1  0.315712  0.512849  0.394169  1
  O  O60  1  0.313020  0.517186  0.099656  1
  O  O61  1  0.999588  0.784676  0.750954  1
  O  O62  1  0.000509  0.795965  0.423651  1
  O  O63  1  0.003521  0.796827  0.076463  1
