# generated using pymatgen
data_Na3Ni2P2(CO7)2
_symmetry_space_group_name_H-M   'P 1'
_cell_length_a   8.37573821
_cell_length_b   8.37611554
_cell_length_c   10.15417211
_cell_angle_alpha   106.82058175
_cell_angle_beta   108.02779398
_cell_angle_gamma   103.54593015
_symmetry_Int_Tables_number   1
_chemical_formula_structural   Na3Ni2P2(CO7)2
_chemical_formula_sum   'Na6 Ni4 P4 C4 O28'
_cell_volume   606.01166841
_cell_formula_units_Z   2
loop_
 _symmetry_equiv_pos_site_id
 _symmetry_equiv_pos_as_xyz
  1  'x, y, z'
loop_
 _atom_site_type_symbol
 _atom_site_label
 _atom_site_symmetry_multiplicity
 _atom_site_fract_x
 _atom_site_fract_y
 _atom_site_fract_z
 _atom_site_occupancy
  Na  Na0  1  0.478299  0.517344  0.739610  1
  Na  Na1  1  0.521701  0.482656  0.260390  1
  Na  Na2  1  0.003057  0.005227  0.752037  1
  Na  Na3  1  0.754234  0.240297  0.746035  1
  Na  Na4  1  0.996943  0.994773  0.247963  1
  Na  Na5  1  0.245766  0.759703  0.253965  1
  Ni  Ni6  1  0.816962  0.560796  0.654042  1
  Ni  Ni7  1  0.183038  0.439204  0.345958  1
  Ni  Ni8  1  0.313518  0.059010  0.655185  1
  Ni  Ni9  1  0.686482  0.940990  0.344815  1
  P  P10  1  0.949674  0.701569  0.427001  1
  P  P11  1  0.445108  0.194428  0.423488  1
  P  P12  1  0.050326  0.298431  0.572999  1
  P  P13  1  0.554892  0.805572  0.576512  1
  C  C14  1  0.980820  0.728240  0.925705  1
  C  C15  1  0.019180  0.271760  0.074295  1
  C  C16  1  0.481019  0.233454  0.925285  1
  C  C17  1  0.518981  0.766546  0.074715  1
  O  O18  1  0.431755  0.676880  0.937352  1
  O  O19  1  0.662936  0.725343  0.674408  1
  O  O20  1  0.593991  0.343144  0.572153  1
  O  O21  1  0.180117  0.422048  0.533053  1
  O  O22  1  0.819883  0.577952  0.466947  1
  O  O23  1  0.406009  0.656856  0.427847  1
  O  O24  1  0.036751  0.602422  0.334573  1
  O  O25  1  0.337064  0.274657  0.325592  1
  O  O26  1  0.518393  0.078944  0.327023  1
  O  O27  1  0.475599  0.724469  0.177219  1
  O  O28  1  0.973690  0.228229  0.173687  1
  O  O29  1  0.160009  0.417298  0.135438  1
  O  O30  1  0.659910  0.908923  0.130815  1
  O  O31  1  0.568245  0.323120  0.062648  1
  O  O32  1  0.937783  0.183850  0.935195  1
  O  O33  1  0.839991  0.582702  0.864562  1
  O  O34  1  0.340090  0.091077  0.869185  1
  O  O35  1  0.524401  0.275531  0.822781  1
  O  O36  1  0.026310  0.771771  0.826313  1
  O  O37  1  0.963249  0.397578  0.665427  1
  O  O38  1  0.160394  0.220535  0.674321  1
  O  O39  1  0.481607  0.921056  0.672977  1
  O  O40  1  0.094031  0.852925  0.574800  1
  O  O41  1  0.686860  0.933372  0.538110  1
  O  O42  1  0.313140  0.066628  0.461890  1
  O  O43  1  0.905969  0.147075  0.425200  1
  O  O44  1  0.839606  0.779465  0.325679  1
  O  O45  1  0.062217  0.816150  0.064805  1
