# generated using pymatgen
data_Li2Si5Ni5O16
_symmetry_space_group_name_H-M   'P 1'
_cell_length_a   4.92555257
_cell_length_b   7.00786191
_cell_length_c   10.06297139
_cell_angle_alpha   89.23726337
_cell_angle_beta   89.96751696
_cell_angle_gamma   89.95137217
_symmetry_Int_Tables_number   1
_chemical_formula_structural   Li2Si5Ni5O16
_chemical_formula_sum   'Li2 Si5 Ni5 O16'
_cell_volume   347.31858693
_cell_formula_units_Z   1
loop_
 _symmetry_equiv_pos_site_id
 _symmetry_equiv_pos_as_xyz
  1  'x, y, z'
loop_
 _atom_site_type_symbol
 _atom_site_label
 _atom_site_symmetry_multiplicity
 _atom_site_fract_x
 _atom_site_fract_y
 _atom_site_fract_z
 _atom_site_occupancy
  Li  Li0  1  0.339835  0.503432  0.338168  1
  Li  Li1  1  0.817214  0.997463  0.143358  1
  Si  Si2  1  0.303574  0.987975  0.336236  1
  Si  Si3  1  0.179929  0.766008  0.592509  1
  Si  Si4  1  0.332920  0.741035  0.098514  1
  Si  Si5  1  0.685043  0.258590  0.909069  1
  Si  Si6  1  0.797490  0.232504  0.406814  1
  Ni  Ni7  1  0.191664  0.012504  0.855719  1
  Ni  Ni8  1  0.195507  0.516473  0.847435  1
  Ni  Ni9  1  0.696782  0.497873  0.644178  1
  Ni  Ni10  1  0.817142  0.496040  0.151688  1
  Ni  Ni11  1  0.689963  0.999504  0.661563  1
  O  O12  1  0.293418  0.952772  0.669524  1
  O  O13  1  0.212614  0.932838  0.184717  1
  O  O14  1  0.230330  0.763256  0.943870  1
  O  O15  1  0.849643  0.754120  0.606026  1
  O  O16  1  0.658254  0.751150  0.117129  1
  O  O17  1  0.265064  0.795709  0.431663  1
  O  O18  1  0.303484  0.566167  0.651863  1
  O  O19  1  0.208641  0.548520  0.164660  1
  O  O20  1  0.723553  0.434934  0.340428  1
  O  O21  1  0.805338  0.449942  0.831434  1
  O  O22  1  0.354233  0.264284  0.882191  1
  O  O23  1  0.735002  0.241746  0.565303  1
  O  O24  1  0.121050  0.172221  0.381451  1
  O  O25  1  0.771319  0.249097  0.064146  1
  O  O26  1  0.624020  0.052689  0.339841  1
  O  O27  1  0.796976  0.061157  0.840507  1
