# generated using pymatgen
data_Cr4OF11
_symmetry_space_group_name_H-M   'P 1'
_cell_length_a   5.32814173
_cell_length_b   5.32814173
_cell_length_c   8.74449847
_cell_angle_alpha   74.73790544
_cell_angle_beta   105.26209456
_cell_angle_gamma   122.82605796
_symmetry_Int_Tables_number   1
_chemical_formula_structural   Cr4OF11
_chemical_formula_sum   'Cr4 O1 F11'
_cell_volume   199.01385826
_cell_formula_units_Z   1
loop_
 _symmetry_equiv_pos_site_id
 _symmetry_equiv_pos_as_xyz
  1  'x, y, z'
loop_
 _atom_site_type_symbol
 _atom_site_label
 _atom_site_symmetry_multiplicity
 _atom_site_fract_x
 _atom_site_fract_y
 _atom_site_fract_z
 _atom_site_occupancy
  Cr  Cr0  1  0.741419  0.504856  0.382060  1
  Cr  Cr1  1  0.504856  0.741419  0.617940  1
  Cr  Cr2  1  0.252594  0.999868  0.873828  1
  Cr  Cr3  1  0.999868  0.252594  0.126172  1
  O  O4  1  0.501067  0.501067  0.500000  1
  F  F5  1  0.435978  0.436520  0.808736  1
  F  F6  1  0.436520  0.435978  0.191264  1
  F  F7  1  0.990127  0.495028  0.253245  1
  F  F8  1  0.065315  0.564546  0.939397  1
  F  F9  1  0.066980  0.567749  0.560131  1
  F  F10  1  0.937577  0.937177  0.687828  1
  F  F11  1  0.937177  0.937577  0.312172  1
  F  F12  1  0.003194  0.003194  0.000000  1
  F  F13  1  0.495028  0.990127  0.746755  1
  F  F14  1  0.567749  0.066980  0.439869  1
  F  F15  1  0.564546  0.065315  0.060603  1
