# generated using pymatgen
data_Co2OF3
_symmetry_space_group_name_H-M   'P 1'
_cell_length_a   4.70590354
_cell_length_b   4.70590354
_cell_length_c   15.75133147
_cell_angle_alpha   90.00000000
_cell_angle_beta   90.00000000
_cell_angle_gamma   93.55157006
_symmetry_Int_Tables_number   1
_chemical_formula_structural   Co2OF3
_chemical_formula_sum   'Co10 O5 F15'
_cell_volume   348.15162327
_cell_formula_units_Z   5
loop_
 _symmetry_equiv_pos_site_id
 _symmetry_equiv_pos_as_xyz
  1  'x, y, z'
loop_
 _atom_site_type_symbol
 _atom_site_label
 _atom_site_symmetry_multiplicity
 _atom_site_fract_x
 _atom_site_fract_y
 _atom_site_fract_z
 _atom_site_occupancy
  Co  Co0  1  0.963382  0.963382  0.800797  1
  Co  Co1  1  0.035988  0.035988  0.000000  1
  Co  Co2  1  0.963382  0.963382  0.199203  1
  Co  Co3  1  0.028083  0.028083  0.399146  1
  Co  Co4  1  0.028083  0.028083  0.600854  1
  Co  Co5  1  0.500803  0.500803  0.900210  1
  Co  Co6  1  0.494753  0.494753  0.299410  1
  Co  Co7  1  0.500803  0.500803  0.099790  1
  Co  Co8  1  0.494753  0.494753  0.700590  1
  Co  Co9  1  0.490383  0.490383  0.500000  1
  O  O10  1  0.311300  0.311300  0.000000  1
  O  O11  1  0.303847  0.303847  0.398910  1
  O  O12  1  0.303847  0.303847  0.601090  1
  O  O13  1  0.687929  0.687929  0.799605  1
  O  O14  1  0.687929  0.687929  0.200395  1
  F  F15  1  0.806280  0.194315  0.900205  1
  F  F16  1  0.801286  0.189021  0.299602  1
  F  F17  1  0.806280  0.194315  0.099795  1
  F  F18  1  0.812889  0.202545  0.500000  1
  F  F19  1  0.801286  0.189021  0.700398  1
  F  F20  1  0.277564  0.277564  0.800660  1
  F  F21  1  0.277564  0.277564  0.199340  1
  F  F22  1  0.721643  0.721643  0.000000  1
  F  F23  1  0.715361  0.715361  0.401149  1
  F  F24  1  0.715361  0.715361  0.598851  1
  F  F25  1  0.194315  0.806280  0.900205  1
  F  F26  1  0.189021  0.801286  0.299602  1
  F  F27  1  0.194315  0.806280  0.099795  1
  F  F28  1  0.189021  0.801286  0.700398  1
  F  F29  1  0.202545  0.812889  0.500000  1
