# generated using pymatgen
data_Li5Fe5Si7O24
_symmetry_space_group_name_H-M   'P 1'
_cell_length_a   7.85303252
_cell_length_b   7.95467893
_cell_length_c   9.78001687
_cell_angle_alpha   91.08665411
_cell_angle_beta   91.45950483
_cell_angle_gamma   90.53503887
_symmetry_Int_Tables_number   1
_chemical_formula_structural   Li5Fe5Si7O24
_chemical_formula_sum   'Li5 Fe5 Si7 O24'
_cell_volume   610.60401833
_cell_formula_units_Z   1
loop_
 _symmetry_equiv_pos_site_id
 _symmetry_equiv_pos_as_xyz
  1  'x, y, z'
loop_
 _atom_site_type_symbol
 _atom_site_label
 _atom_site_symmetry_multiplicity
 _atom_site_fract_x
 _atom_site_fract_y
 _atom_site_fract_z
 _atom_site_occupancy
  Li  Li0  1  0.432336  0.305128  0.749921  1
  Li  Li1  1  0.491957  0.819668  0.207081  1
  Li  Li2  1  0.821727  0.474854  0.284142  1
  Li  Li3  1  0.727203  0.995823  0.992838  1
  Li  Li4  1  0.011519  0.336894  0.029079  1
  Fe  Fe5  1  0.121499  0.668444  0.231904  1
  Fe  Fe6  1  0.375614  0.169216  0.016437  1
  Fe  Fe7  1  0.661309  0.119996  0.289652  1
  Fe  Fe8  1  0.833419  0.623065  0.974205  1
  Fe  Fe9  1  0.871572  0.324559  0.713996  1
  Si  Si10  1  0.078605  0.096217  0.242523  1
  Si  Si11  1  0.162082  0.373287  0.469433  1
  Si  Si12  1  0.329995  0.874759  0.767206  1
  Si  Si13  1  0.421333  0.594209  0.993945  1
  Si  Si14  1  0.564923  0.430808  0.503067  1
  Si  Si15  1  0.620307  0.824706  0.539445  1
  Si  Si16  1  0.927095  0.915924  0.751983  1
  O  O17  1  0.052975  0.357184  0.604256  1
  O  O18  1  0.093463  0.532073  0.382929  1
  O  O19  1  0.111458  0.898481  0.263511  1
  O  O20  1  0.153574  0.197669  0.378136  1
  O  O21  1  0.127670  0.874996  0.718983  1
  O  O22  1  0.168236  0.173064  0.105218  1
  O  O23  1  0.321910  0.647668  0.133116  1
  O  O24  1  0.361920  0.396910  0.523200  1
  O  O25  1  0.360037  0.709222  0.863143  1
  O  O26  1  0.402820  0.394383  0.946752  1
  O  O27  1  0.384197  0.054779  0.843848  1
  O  O28  1  0.455482  0.859049  0.635470  1
  O  O29  1  0.540402  0.052846  0.123993  1
  O  O30  1  0.607923  0.937290  0.400627  1
  O  O31  1  0.609614  0.629956  0.479161  1
  O  O32  1  0.639801  0.340099  0.364928  1
  O  O33  1  0.614163  0.649747  0.043750  1
  O  O34  1  0.644039  0.360864  0.646289  1
  O  O35  1  0.803422  0.849259  0.621887  1
  O  O36  1  0.876387  0.138711  0.210739  1
  O  O37  1  0.866792  0.832232  0.895565  1
  O  O38  1  0.888915  0.110818  0.786946  1
  O  O39  1  0.907695  0.441301  0.876815  1
  O  O40  1  0.945809  0.553140  0.135684  1
