# generated using pymatgen
data_Li3Sb3P8O29
_symmetry_space_group_name_H-M   'P 1'
_cell_length_a   9.81431617
_cell_length_b   9.81431617
_cell_length_c   14.34933460
_cell_angle_alpha   89.75970542
_cell_angle_beta   90.24029458
_cell_angle_gamma   119.81253036
_symmetry_Int_Tables_number   1
_chemical_formula_structural   Li3Sb3P8O29
_chemical_formula_sum   'Li6 Sb6 P16 O58'
_cell_volume   1199.20849866
_cell_formula_units_Z   2
loop_
 _symmetry_equiv_pos_site_id
 _symmetry_equiv_pos_as_xyz
  1  'x, y, z'
loop_
 _atom_site_type_symbol
 _atom_site_label
 _atom_site_symmetry_multiplicity
 _atom_site_fract_x
 _atom_site_fract_y
 _atom_site_fract_z
 _atom_site_occupancy
  Li  Li0  1  0.034730  0.052800  0.496524  1
  Li  Li1  1  0.947200  0.965270  0.996524  1
  Li  Li2  1  0.096390  0.324606  0.051233  1
  Li  Li3  1  0.675394  0.903610  0.551233  1
  Li  Li4  1  0.101922  0.773842  0.551811  1
  Li  Li5  1  0.226158  0.898078  0.051811  1
  Sb  Sb6  1  0.438461  0.436388  0.749403  1
  Sb  Sb7  1  0.563612  0.561539  0.249403  1
  Sb  Sb8  1  0.998157  0.434044  0.253402  1
  Sb  Sb9  1  0.996046  0.561268  0.749370  1
  Sb  Sb10  1  0.565956  0.001843  0.753402  1
  Sb  Sb11  1  0.438732  0.003954  0.249370  1
  P  P12  1  0.223815  0.304823  0.345844  1
  P  P13  1  0.086947  0.309894  0.842480  1
  P  P14  1  0.695177  0.776185  0.845844  1
  P  P15  1  0.330772  0.665995  0.128124  1
  P  P16  1  0.334005  0.669228  0.628124  1
  P  P17  1  0.690106  0.913053  0.342480  1
  P  P18  1  0.780101  0.083450  0.157128  1
  P  P19  1  0.087882  0.776307  0.344513  1
  P  P20  1  0.916550  0.219899  0.657128  1
  P  P21  1  0.223693  0.912118  0.844513  1
  P  P22  1  0.306218  0.085177  0.661112  1
  P  P23  1  0.666307  0.333291  0.872200  1
  P  P24  1  0.666709  0.333693  0.372200  1
  P  P25  1  0.303762  0.223801  0.157957  1
  P  P26  1  0.914823  0.693782  0.161112  1
  P  P27  1  0.776199  0.696238  0.657957  1
  O  O28  1  0.211823  0.206265  0.252786  1
  O  O29  1  0.204856  0.213165  0.077149  1
  O  O30  1  0.255901  0.336334  0.833823  1
  O  O31  1  0.989688  0.204317  0.755127  1
  O  O32  1  0.996979  0.199692  0.576674  1
  O  O33  1  0.082845  0.336184  0.338951  1
  O  O34  1  0.380127  0.465084  0.336618  1
  O  O35  1  0.322390  0.519185  0.675061  1
  O  O36  1  0.534916  0.619873  0.836618  1
  O  O37  1  0.786835  0.795144  0.577149  1
  O  O38  1  0.793735  0.788177  0.752786  1
  O  O39  1  0.663666  0.744099  0.333823  1
  O  O40  1  0.186603  0.510591  0.169881  1
  O  O41  1  0.096036  0.473142  0.831762  1
  O  O42  1  0.480815  0.677610  0.175061  1
  O  O43  1  0.322644  0.661963  0.025171  1
  O  O44  1  0.338037  0.677356  0.525171  1
  O  O45  1  0.489409  0.813397  0.669881  1
  O  O46  1  0.099151  0.623665  0.333408  1
  O  O47  1  0.186904  0.680104  0.666359  1
  O  O48  1  0.663816  0.917155  0.838951  1
  O  O49  1  0.795683  0.010312  0.255127  1
  O  O50  1  0.800308  0.003021  0.076674  1
  O  O51  1  0.771619  0.985200  0.431226  1
  O  O52  1  0.526858  0.903964  0.331762  1
  O  O53  1  0.319896  0.813096  0.166359  1
  O  O54  1  0.741652  0.079506  0.660048  1
  O  O55  1  0.376335  0.900849  0.833408  1
  O  O56  1  0.080613  0.743587  0.834235  1
  O  O57  1  0.014800  0.228381  0.931226  1
  O  O58  1  0.007466  0.796222  0.082286  1
  O  O59  1  0.987886  0.784524  0.258424  1
  O  O60  1  0.920494  0.258348  0.160048  1
  O  O61  1  0.622699  0.087423  0.162461  1
  O  O62  1  0.256413  0.919387  0.334235  1
  O  O63  1  0.683629  0.194457  0.827194  1
  O  O64  1  0.465926  0.087048  0.667110  1
  O  O65  1  0.203778  0.992534  0.582286  1
  O  O66  1  0.214207  0.982214  0.933809  1
  O  O67  1  0.215476  0.012114  0.758424  1
  O  O68  1  0.335539  0.081433  0.157292  1
  O  O69  1  0.805543  0.316371  0.327194  1
  O  O70  1  0.912577  0.377301  0.662461  1
  O  O71  1  0.512220  0.193896  0.326046  1
  O  O72  1  0.666762  0.332722  0.974591  1
  O  O73  1  0.667278  0.333238  0.474591  1
  O  O74  1  0.511984  0.317683  0.826175  1
  O  O75  1  0.912952  0.534074  0.167110  1
  O  O76  1  0.806104  0.487780  0.826046  1
  O  O77  1  0.339430  0.257118  0.660092  1
  O  O78  1  0.207994  0.208151  0.427999  1
  O  O79  1  0.466350  0.377268  0.163885  1
  O  O80  1  0.682317  0.488016  0.326175  1
  O  O81  1  0.622732  0.533650  0.663885  1
  O  O82  1  0.918567  0.664461  0.657292  1
  O  O83  1  0.017786  0.785793  0.433809  1
  O  O84  1  0.742882  0.660570  0.160092  1
  O  O85  1  0.791849  0.792006  0.927999  1
