# generated using pymatgen
data_Li2V6O15
_symmetry_space_group_name_H-M   'P 1'
_cell_length_a   8.08146072
_cell_length_b   8.08146072
_cell_length_c   10.39932918
_cell_angle_alpha   67.75112541
_cell_angle_beta   112.24887459
_cell_angle_gamma   153.74231099
_symmetry_Int_Tables_number   1
_chemical_formula_structural   Li2V6O15
_chemical_formula_sum   'Li2 V6 O15'
_cell_volume   276.83564832
_cell_formula_units_Z   1
loop_
 _symmetry_equiv_pos_site_id
 _symmetry_equiv_pos_as_xyz
  1  'x, y, z'
loop_
 _atom_site_type_symbol
 _atom_site_label
 _atom_site_symmetry_multiplicity
 _atom_site_fract_x
 _atom_site_fract_y
 _atom_site_fract_z
 _atom_site_occupancy
  Li  Li0  1  0.992811  0.007189  0.677047  1
  Li  Li1  1  0.007189  0.992811  0.322953  1
  V  V2  1  0.337956  0.662044  0.103298  1
  V  V3  1  0.121055  0.878945  0.112429  1
  V  V4  1  0.711755  0.288245  0.585959  1
  V  V5  1  0.288245  0.711755  0.414041  1
  V  V6  1  0.878945  0.121055  0.887571  1
  V  V7  1  0.662044  0.337956  0.896702  1
  O  O8  1  0.814027  0.185973  0.040859  1
  O  O9  1  0.000000  0.000000  0.000000  1
  O  O10  1  0.632800  0.367200  0.072078  1
  O  O11  1  0.442076  0.557924  0.237520  1
  O  O12  1  0.759937  0.240063  0.432318  1
  O  O13  1  0.265588  0.734412  0.229527  1
  O  O14  1  0.599163  0.400837  0.510133  1
  O  O15  1  0.114327  0.885673  0.268270  1
  O  O16  1  0.885673  0.114327  0.731730  1
  O  O17  1  0.400837  0.599163  0.489867  1
  O  O18  1  0.734412  0.265588  0.770473  1
  O  O19  1  0.240063  0.759937  0.567682  1
  O  O20  1  0.557924  0.442076  0.762480  1
  O  O21  1  0.367200  0.632800  0.927922  1
  O  O22  1  0.185973  0.814027  0.959141  1
