# generated using pymatgen
data_Li5Ti12O24
_symmetry_space_group_name_H-M   'P 1'
_cell_length_a   5.08802539
_cell_length_b   8.88726884
_cell_length_c   9.73782267
_cell_angle_alpha   90.00000000
_cell_angle_beta   90.10356667
_cell_angle_gamma   90.00000000
_symmetry_Int_Tables_number   1
_chemical_formula_structural   Li5Ti12O24
_chemical_formula_sum   'Li5 Ti12 O24'
_cell_volume   440.33047134
_cell_formula_units_Z   1
loop_
 _symmetry_equiv_pos_site_id
 _symmetry_equiv_pos_as_xyz
  1  'x, y, z'
loop_
 _atom_site_type_symbol
 _atom_site_label
 _atom_site_symmetry_multiplicity
 _atom_site_fract_x
 _atom_site_fract_y
 _atom_site_fract_z
 _atom_site_occupancy
  Li  Li0  1  0.428387  0.500000  0.032280  1
  Li  Li1  1  0.567928  0.000000  0.962664  1
  Li  Li2  1  0.938953  0.000000  0.465889  1
  Li  Li3  1  0.933791  0.333564  0.466573  1
  Li  Li4  1  0.933791  0.666436  0.466573  1
  Ti  Ti5  1  0.003004  0.500000  0.855189  1
  Ti  Ti6  1  0.028104  0.826818  0.860330  1
  Ti  Ti7  1  0.028104  0.173182  0.860330  1
  Ti  Ti8  1  0.478917  0.164275  0.357843  1
  Ti  Ti9  1  0.469075  0.500000  0.356717  1
  Ti  Ti10  1  0.478917  0.835725  0.357843  1
  Ti  Ti11  1  0.512170  0.335403  0.642115  1
  Ti  Ti12  1  0.523943  0.000000  0.642790  1
  Ti  Ti13  1  0.512170  0.664597  0.642115  1
  Ti  Ti14  1  0.997568  0.000000  0.140258  1
  Ti  Ti15  1  0.968799  0.673601  0.134680  1
  Ti  Ti16  1  0.968799  0.326399  0.134680  1
  O  O17  1  0.195565  0.172654  0.224939  1
  O  O18  1  0.208209  0.500000  0.212814  1
  O  O19  1  0.195565  0.827346  0.224939  1
  O  O20  1  0.195502  0.336730  0.964485  1
  O  O21  1  0.195502  0.663270  0.964485  1
  O  O22  1  0.200242  0.000000  0.964367  1
  O  O23  1  0.302297  0.333659  0.465619  1
  O  O24  1  0.302297  0.666341  0.465619  1
  O  O25  1  0.305254  0.000000  0.465421  1
  O  O26  1  0.306613  0.163436  0.723061  1
  O  O27  1  0.306613  0.836564  0.723061  1
  O  O28  1  0.302572  0.500000  0.725457  1
  O  O29  1  0.714489  0.000000  0.284668  1
  O  O30  1  0.709978  0.336341  0.286230  1
  O  O31  1  0.709978  0.663659  0.286230  1
  O  O32  1  0.706297  0.500000  0.534802  1
  O  O33  1  0.709219  0.833927  0.533724  1
  O  O34  1  0.709219  0.166073  0.533724  1
  O  O35  1  0.798691  0.837205  0.034957  1
  O  O36  1  0.795710  0.500000  0.036245  1
  O  O37  1  0.798691  0.162795  0.034957  1
  O  O38  1  0.795080  0.000000  0.785687  1
  O  O39  1  0.804749  0.328756  0.773775  1
  O  O40  1  0.804749  0.671244  0.773775  1
