# generated using pymatgen
data_Li5FeO4
_symmetry_space_group_name_H-M   'P 1'
_cell_length_a   5.19471663
_cell_length_b   9.98670203
_cell_length_c   15.84571539
_cell_angle_alpha   90.00000000
_cell_angle_beta   90.00000000
_cell_angle_gamma   90.00000000
_symmetry_Int_Tables_number   1
_chemical_formula_structural   Li5FeO4
_chemical_formula_sum   'Li40 Fe8 O32'
_cell_volume   822.04540339
_cell_formula_units_Z   8
loop_
 _symmetry_equiv_pos_site_id
 _symmetry_equiv_pos_as_xyz
  1  'x, y, z'
loop_
 _atom_site_type_symbol
 _atom_site_label
 _atom_site_symmetry_multiplicity
 _atom_site_fract_x
 _atom_site_fract_y
 _atom_site_fract_z
 _atom_site_occupancy
  Li  Li0  1  0.906483  0.929034  0.428790  1
  Li  Li1  1  0.593517  0.929034  0.928790  1
  Li  Li2  1  0.417850  0.943042  0.760367  1
  Li  Li3  1  0.082150  0.943042  0.260367  1
  Li  Li4  1  0.117244  0.814545  0.992849  1
  Li  Li5  1  0.382756  0.814545  0.492849  1
  Li  Li6  1  0.917317  0.805521  0.822958  1
  Li  Li7  1  0.582683  0.805521  0.322958  1
  Li  Li8  1  0.427307  0.801411  0.156340  1
  Li  Li9  1  0.072693  0.801411  0.656340  1
  Li  Li10  1  0.927307  0.698589  0.156340  1
  Li  Li11  1  0.572693  0.698589  0.656340  1
  Li  Li12  1  0.417317  0.694479  0.822958  1
  Li  Li13  1  0.082683  0.694479  0.322958  1
  Li  Li14  1  0.617244  0.685455  0.992849  1
  Li  Li15  1  0.882756  0.685455  0.492849  1
  Li  Li16  1  0.582150  0.556958  0.260367  1
  Li  Li17  1  0.917850  0.556958  0.760367  1
  Li  Li18  1  0.093517  0.570966  0.928790  1
  Li  Li19  1  0.406483  0.570966  0.428790  1
  Li  Li20  1  0.906483  0.429034  0.071210  1
  Li  Li21  1  0.593517  0.429034  0.571210  1
  Li  Li22  1  0.417850  0.443042  0.739633  1
  Li  Li23  1  0.082150  0.443042  0.239633  1
  Li  Li24  1  0.382756  0.314545  0.007151  1
  Li  Li25  1  0.117244  0.314545  0.507151  1
  Li  Li26  1  0.582683  0.305521  0.177042  1
  Li  Li27  1  0.917317  0.305521  0.677042  1
  Li  Li28  1  0.427307  0.301411  0.343660  1
  Li  Li29  1  0.072693  0.301411  0.843660  1
  Li  Li30  1  0.927307  0.198589  0.343660  1
  Li  Li31  1  0.572693  0.198589  0.843660  1
  Li  Li32  1  0.417317  0.194479  0.677042  1
  Li  Li33  1  0.082683  0.194479  0.177042  1
  Li  Li34  1  0.882756  0.185455  0.007151  1
  Li  Li35  1  0.617244  0.185455  0.507151  1
  Li  Li36  1  0.917850  0.056958  0.739633  1
  Li  Li37  1  0.582150  0.056958  0.239633  1
  Li  Li38  1  0.093517  0.070966  0.571210  1
  Li  Li39  1  0.406483  0.070966  0.071210  1
  Fe  Fe40  1  0.856830  0.954673  0.116910  1
  Fe  Fe41  1  0.643170  0.954673  0.616910  1
  Fe  Fe42  1  0.356830  0.545327  0.116910  1
  Fe  Fe43  1  0.143170  0.545327  0.616910  1
  Fe  Fe44  1  0.856830  0.454673  0.383090  1
  Fe  Fe45  1  0.643170  0.454673  0.883090  1
  Fe  Fe46  1  0.356830  0.045327  0.383090  1
  Fe  Fe47  1  0.143170  0.045327  0.883090  1
  O  O48  1  0.213114  0.950090  0.135151  1
  O  O49  1  0.286886  0.950090  0.635151  1
  O  O50  1  0.741576  0.860762  0.216389  1
  O  O51  1  0.758424  0.860762  0.716389  1
  O  O52  1  0.752967  0.854312  0.024013  1
  O  O53  1  0.747033  0.854312  0.524013  1
  O  O54  1  0.232790  0.862752  0.373115  1
  O  O55  1  0.267210  0.862752  0.873115  1
  O  O56  1  0.732790  0.637248  0.373115  1
  O  O57  1  0.767210  0.637248  0.873115  1
  O  O58  1  0.252967  0.645688  0.024013  1
  O  O59  1  0.247033  0.645688  0.524013  1
  O  O60  1  0.241576  0.639238  0.216389  1
  O  O61  1  0.258424  0.639238  0.716389  1
  O  O62  1  0.713114  0.549910  0.135151  1
  O  O63  1  0.786886  0.549910  0.635151  1
  O  O64  1  0.286886  0.450090  0.864849  1
  O  O65  1  0.213114  0.450090  0.364849  1
  O  O66  1  0.741576  0.360762  0.283611  1
  O  O67  1  0.758424  0.360762  0.783611  1
  O  O68  1  0.747033  0.354312  0.975987  1
  O  O69  1  0.752967  0.354312  0.475987  1
  O  O70  1  0.267210  0.362752  0.626885  1
  O  O71  1  0.232790  0.362752  0.126885  1
  O  O72  1  0.767210  0.137248  0.626885  1
  O  O73  1  0.732790  0.137248  0.126885  1
  O  O74  1  0.252967  0.145688  0.475987  1
  O  O75  1  0.247033  0.145688  0.975987  1
  O  O76  1  0.258424  0.139238  0.783611  1
  O  O77  1  0.241576  0.139238  0.283611  1
  O  O78  1  0.713114  0.049910  0.364849  1
  O  O79  1  0.786886  0.049910  0.864849  1
