# generated using pymatgen
data_Na4(WO3)9
_symmetry_space_group_name_H-M   'P 1'
_cell_length_a   9.54647236
_cell_length_b   9.54647236
_cell_length_c   11.69819707
_cell_angle_alpha   65.91097429
_cell_angle_beta   114.08902571
_cell_angle_gamma   146.42692494
_symmetry_Int_Tables_number   1
_chemical_formula_structural   Na4(WO3)9
_chemical_formula_sum   'Na4 W9 O27'
_cell_volume   533.30146560
_cell_formula_units_Z   1
loop_
 _symmetry_equiv_pos_site_id
 _symmetry_equiv_pos_as_xyz
  1  'x, y, z'
loop_
 _atom_site_type_symbol
 _atom_site_label
 _atom_site_symmetry_multiplicity
 _atom_site_fract_x
 _atom_site_fract_y
 _atom_site_fract_z
 _atom_site_occupancy
  Na  Na0  1  0.000005  0.999995  0.332917  1
  Na  Na1  1  0.333271  0.666729  0.888719  1
  Na  Na2  1  0.999995  0.000005  0.667083  1
  Na  Na3  1  0.666729  0.333271  0.111281  1
  W  W4  1  0.168085  0.831915  0.279908  1
  W  W5  1  0.832253  0.167747  0.389377  1
  W  W6  1  0.500000  0.500000  0.500000  1
  W  W7  1  0.831915  0.168085  0.720092  1
  W  W8  1  0.167747  0.832253  0.610623  1
  W  W9  1  0.499385  0.500615  0.832906  1
  W  W10  1  0.833486  0.166514  0.055678  1
  W  W11  1  0.166514  0.833486  0.944322  1
  W  W12  1  0.500615  0.499385  0.167094  1
  O  O13  1  0.501755  0.003127  0.331494  1
  O  O14  1  0.996873  0.498245  0.331494  1
  O  O15  1  0.499988  0.500012  0.333236  1
  O  O16  1  0.834664  0.165336  0.556482  1
  O  O17  1  0.165336  0.834664  0.443518  1
  O  O18  1  0.672736  0.836280  0.445570  1
  O  O19  1  0.327264  0.163720  0.554430  1
  O  O20  1  0.498245  0.996873  0.668506  1
  O  O21  1  0.836280  0.672736  0.554430  1
  O  O22  1  0.003127  0.501755  0.668506  1
  O  O23  1  0.163720  0.327264  0.445570  1
  O  O24  1  0.500012  0.499988  0.666764  1
  O  O25  1  0.833206  0.166794  0.888883  1
  O  O26  1  0.166814  0.833186  0.777973  1
  O  O27  1  0.000000  0.500000  0.000000  1
  O  O28  1  0.500000  0.000000  0.000000  1
  O  O29  1  0.833018  0.666612  0.888818  1
  O  O30  1  0.666544  0.833503  0.777615  1
  O  O31  1  0.333388  0.166982  0.888818  1
  O  O32  1  0.166497  0.333456  0.777615  1
  O  O33  1  0.500000  0.500000  0.000000  1
  O  O34  1  0.833186  0.166814  0.222027  1
  O  O35  1  0.166794  0.833206  0.111117  1
  O  O36  1  0.666612  0.833018  0.111182  1
  O  O37  1  0.833503  0.666544  0.222385  1
  O  O38  1  0.333456  0.166497  0.222385  1
  O  O39  1  0.166982  0.333388  0.111182  1
