# generated using pymatgen
data_InCoO3
_symmetry_space_group_name_H-M   'P 1'
_cell_length_a   5.12414189
_cell_length_b   5.31383334
_cell_length_c   7.43516932
_cell_angle_alpha   90.00000000
_cell_angle_beta   90.00000000
_cell_angle_gamma   90.00000000
_symmetry_Int_Tables_number   1
_chemical_formula_structural   InCoO3
_chemical_formula_sum   'In4 Co4 O12'
_cell_volume   202.45100633
_cell_formula_units_Z   4
loop_
 _symmetry_equiv_pos_site_id
 _symmetry_equiv_pos_as_xyz
  1  'x, y, z'
loop_
 _atom_site_type_symbol
 _atom_site_label
 _atom_site_symmetry_multiplicity
 _atom_site_fract_x
 _atom_site_fract_y
 _atom_site_fract_z
 _atom_site_occupancy
  In  In0  1  0.021670  0.936282  0.250000  1
  In  In1  1  0.478330  0.436282  0.250000  1
  In  In2  1  0.521670  0.563718  0.750000  1
  In  In3  1  0.978330  0.063718  0.750000  1
  Co  Co4  1  0.000000  0.500000  0.500000  1
  Co  Co5  1  0.000000  0.500000  0.000000  1
  Co  Co6  1  0.500000  0.000000  0.500000  1
  Co  Co7  1  0.500000  0.000000  0.000000  1
  O  O8  1  0.118876  0.451143  0.750000  1
  O  O9  1  0.197110  0.200294  0.063811  1
  O  O10  1  0.197110  0.200294  0.436189  1
  O  O11  1  0.302890  0.700294  0.436189  1
  O  O12  1  0.302890  0.700294  0.063811  1
  O  O13  1  0.381124  0.951143  0.750000  1
  O  O14  1  0.618876  0.048857  0.250000  1
  O  O15  1  0.697110  0.299706  0.936189  1
  O  O16  1  0.697110  0.299706  0.563811  1
  O  O17  1  0.802890  0.799706  0.563811  1
  O  O18  1  0.802890  0.799706  0.936189  1
  O  O19  1  0.881124  0.548857  0.250000  1
