# generated using pymatgen
data_Li2VCr(P2O7)2
_symmetry_space_group_name_H-M   'P 1'
_cell_length_a   7.14760281
_cell_length_b   8.22518876
_cell_length_c   9.73450806
_cell_angle_alpha   90.00000000
_cell_angle_beta   111.38208478
_cell_angle_gamma   90.00000000
_symmetry_Int_Tables_number   1
_chemical_formula_structural   Li2VCr(P2O7)2
_chemical_formula_sum   'Li4 V2 Cr2 P8 O28'
_cell_volume   532.90427453
_cell_formula_units_Z   2
loop_
 _symmetry_equiv_pos_site_id
 _symmetry_equiv_pos_as_xyz
  1  'x, y, z'
loop_
 _atom_site_type_symbol
 _atom_site_label
 _atom_site_symmetry_multiplicity
 _atom_site_fract_x
 _atom_site_fract_y
 _atom_site_fract_z
 _atom_site_occupancy
  Li  Li0  1  0.676669  0.637335  0.500349  1
  Li  Li1  1  0.323331  0.137335  0.499651  1
  Li  Li2  1  0.675771  0.637328  0.998833  1
  Li  Li3  1  0.324229  0.137328  0.001167  1
  V  V4  1  0.729183  0.000684  0.506675  1
  V  V5  1  0.270817  0.500684  0.493325  1
  Cr  Cr6  1  0.727610  0.999929  0.006450  1
  Cr  Cr7  1  0.272390  0.499929  0.993550  1
  P  P8  1  0.913434  0.215403  0.312096  1
  P  P9  1  0.521402  0.320221  0.310286  1
  P  P10  1  0.478598  0.820221  0.689714  1
  P  P11  1  0.914930  0.216869  0.814780  1
  P  P12  1  0.086566  0.715403  0.687904  1
  P  P13  1  0.523109  0.319398  0.812014  1
  P  P14  1  0.476891  0.819398  0.187986  1
  P  P15  1  0.085070  0.716869  0.185220  1
  O  O16  1  0.753152  0.347655  0.329137  1
  O  O17  1  0.916797  0.065030  0.407045  1
  O  O18  1  0.605469  0.820334  0.353129  1
  O  O19  1  0.505036  0.156012  0.378655  1
  O  O20  1  0.481795  0.462848  0.397740  1
  O  O21  1  0.146519  0.677568  0.348464  1
  O  O22  1  0.114631  0.303216  0.372675  1
  O  O23  1  0.885369  0.803216  0.627325  1
  O  O24  1  0.853481  0.177568  0.651536  1
  O  O25  1  0.518205  0.962848  0.602260  1
  O  O26  1  0.494964  0.656012  0.621345  1
  O  O27  1  0.394531  0.320334  0.646871  1
  O  O28  1  0.083203  0.565030  0.592955  1
  O  O29  1  0.246848  0.847655  0.670863  1
  O  O30  1  0.753673  0.348775  0.829885  1
  O  O31  1  0.917288  0.066531  0.908384  1
  O  O32  1  0.606761  0.821871  0.854622  1
  O  O33  1  0.509581  0.153795  0.880893  1
  O  O34  1  0.481609  0.461744  0.898202  1
  O  O35  1  0.147412  0.675420  0.850557  1
  O  O36  1  0.116500  0.306454  0.874318  1
  O  O37  1  0.883500  0.806454  0.125682  1
  O  O38  1  0.852588  0.175420  0.149443  1
  O  O39  1  0.518391  0.961744  0.101798  1
  O  O40  1  0.490419  0.653795  0.119107  1
  O  O41  1  0.393239  0.321871  0.145378  1
  O  O42  1  0.082712  0.566531  0.091616  1
  O  O43  1  0.246327  0.848775  0.170115  1
