# generated using pymatgen
data_LiCo2OF5
_symmetry_space_group_name_H-M   'P 1'
_cell_length_a   4.57867241
_cell_length_b   4.57867241
_cell_length_c   18.36822530
_cell_angle_alpha   89.24174709
_cell_angle_beta   90.75825291
_cell_angle_gamma   90.05464901
_symmetry_Int_Tables_number   1
_chemical_formula_structural   LiCo2OF5
_chemical_formula_sum   'Li4 Co8 O4 F20'
_cell_volume   385.00834816
_cell_formula_units_Z   4
loop_
 _symmetry_equiv_pos_site_id
 _symmetry_equiv_pos_as_xyz
  1  'x, y, z'
loop_
 _atom_site_type_symbol
 _atom_site_label
 _atom_site_symmetry_multiplicity
 _atom_site_fract_x
 _atom_site_fract_y
 _atom_site_fract_z
 _atom_site_occupancy
  Li  Li0  1  0.005676  0.986054  0.999897  1
  Li  Li1  1  0.013946  0.994324  0.499897  1
  Li  Li2  1  0.504042  0.513637  0.750091  1
  Li  Li3  1  0.486363  0.495958  0.250091  1
  Co  Co4  1  0.992337  0.009703  0.664398  1
  Co  Co5  1  0.022961  0.029043  0.832834  1
  Co  Co6  1  0.970957  0.977039  0.332834  1
  Co  Co7  1  0.990297  0.007663  0.164398  1
  Co  Co8  1  0.509255  0.507390  0.414141  1
  Co  Co9  1  0.492610  0.490745  0.914141  1
  Co  Co10  1  0.526387  0.477822  0.582662  1
  Co  Co11  1  0.522178  0.473613  0.082662  1
  O  O12  1  0.796617  0.206236  0.591142  1
  O  O13  1  0.793764  0.203383  0.091142  1
  O  O14  1  0.700474  0.705951  0.341363  1
  O  O15  1  0.294049  0.299526  0.841363  1
  F  F16  1  0.790559  0.199612  0.916035  1
  F  F17  1  0.801885  0.200939  0.749070  1
  F  F18  1  0.800388  0.209441  0.416035  1
  F  F19  1  0.799061  0.198115  0.249070  1
  F  F20  1  0.686537  0.683622  0.995100  1
  F  F21  1  0.708332  0.714040  0.835454  1
  F  F22  1  0.700311  0.709247  0.165551  1
  F  F23  1  0.700217  0.698201  0.499542  1
  F  F24  1  0.702882  0.711348  0.665720  1
  F  F25  1  0.301799  0.299783  0.999542  1
  F  F26  1  0.290753  0.299689  0.665551  1
  F  F27  1  0.316378  0.313463  0.495100  1
  F  F28  1  0.288652  0.297118  0.165720  1
  F  F29  1  0.285960  0.291668  0.335454  1
  F  F30  1  0.186280  0.816768  0.746259  1
  F  F31  1  0.201155  0.788368  0.915128  1
  F  F32  1  0.213010  0.790935  0.585611  1
  F  F33  1  0.211632  0.798845  0.415128  1
  F  F34  1  0.183232  0.813720  0.246259  1
  F  F35  1  0.209065  0.786990  0.085611  1
