# generated using pymatgen
data_LiVP2O7
_symmetry_space_group_name_H-M   'P 1'
_cell_length_a   6.73498490
_cell_length_b   8.28980828
_cell_length_c   9.27664041
_cell_angle_alpha   90.00000000
_cell_angle_beta   103.94656851
_cell_angle_gamma   90.00000000
_symmetry_Int_Tables_number   1
_chemical_formula_structural   LiVP2O7
_chemical_formula_sum   'Li4 V4 P8 O28'
_cell_volume   502.66278407
_cell_formula_units_Z   4
loop_
 _symmetry_equiv_pos_site_id
 _symmetry_equiv_pos_as_xyz
  1  'x, y, z'
loop_
 _atom_site_type_symbol
 _atom_site_label
 _atom_site_symmetry_multiplicity
 _atom_site_fract_x
 _atom_site_fract_y
 _atom_site_fract_z
 _atom_site_occupancy
  Li  Li0  1  0.266073  0.077689  0.247413  1
  Li  Li1  1  0.266073  0.422311  0.247413  1
  Li  Li2  1  0.733927  0.577689  0.752587  1
  Li  Li3  1  0.733927  0.922311  0.752587  1
  V  V4  1  0.751016  0.929843  0.249829  1
  V  V5  1  0.751016  0.570157  0.249829  1
  V  V6  1  0.248984  0.070157  0.750171  1
  V  V7  1  0.248984  0.429843  0.750171  1
  P  P8  1  0.998996  0.750000  0.049702  1
  P  P9  1  0.578868  0.250000  0.034182  1
  P  P10  1  0.918542  0.250000  0.468250  1
  P  P11  1  0.498319  0.750000  0.446880  1
  P  P12  1  0.501681  0.250000  0.553120  1
  P  P13  1  0.081458  0.750000  0.531750  1
  P  P14  1  0.421132  0.750000  0.965818  1
  P  P15  1  0.001004  0.250000  0.950298  1
  O  O16  1  0.238609  0.750000  0.046082  1
  O  O17  1  0.981022  0.597072  0.142160  1
  O  O18  1  0.981022  0.902928  0.142160  1
  O  O19  1  0.610820  0.750000  0.101054  1
  O  O20  1  0.577278  0.097835  0.125324  1
  O  O21  1  0.577278  0.402165  0.125324  1
  O  O22  1  0.130195  0.250000  0.107648  1
  O  O23  1  0.914939  0.097867  0.376803  1
  O  O24  1  0.914939  0.402133  0.376803  1
  O  O25  1  0.888219  0.750000  0.399209  1
  O  O26  1  0.518514  0.596938  0.354999  1
  O  O27  1  0.518514  0.903062  0.354999  1
  O  O28  1  0.376831  0.250000  0.394666  1
  O  O29  1  0.257858  0.750000  0.445393  1
  O  O30  1  0.742142  0.250000  0.554607  1
  O  O31  1  0.623169  0.750000  0.605334  1
  O  O32  1  0.481486  0.096938  0.645001  1
  O  O33  1  0.481486  0.403062  0.645001  1
  O  O34  1  0.111781  0.250000  0.600791  1
  O  O35  1  0.085061  0.597867  0.623197  1
  O  O36  1  0.085061  0.902133  0.623197  1
  O  O37  1  0.869805  0.750000  0.892352  1
  O  O38  1  0.422722  0.597835  0.874676  1
  O  O39  1  0.422722  0.902165  0.874676  1
  O  O40  1  0.389180  0.250000  0.898946  1
  O  O41  1  0.018978  0.097072  0.857840  1
  O  O42  1  0.018978  0.402928  0.857840  1
  O  O43  1  0.761391  0.250000  0.953918  1
