# generated using pymatgen
data_LiVPO5
_symmetry_space_group_name_H-M   'P 1'
_cell_length_a   5.16209360
_cell_length_b   9.12418153
_cell_length_c   17.74307769
_cell_angle_alpha   90.00000000
_cell_angle_beta   91.34211443
_cell_angle_gamma   90.00000000
_symmetry_Int_Tables_number   1
_chemical_formula_structural   LiVPO5
_chemical_formula_sum   'Li8 V8 P8 O40'
_cell_volume   835.46755177
_cell_formula_units_Z   8
loop_
 _symmetry_equiv_pos_site_id
 _symmetry_equiv_pos_as_xyz
  1  'x, y, z'
loop_
 _atom_site_type_symbol
 _atom_site_label
 _atom_site_symmetry_multiplicity
 _atom_site_fract_x
 _atom_site_fract_y
 _atom_site_fract_z
 _atom_site_occupancy
  Li  Li0  1  0.634318  0.273184  0.390778  1
  Li  Li1  1  0.587416  0.949662  0.289820  1
  Li  Li2  1  0.412584  0.449662  0.210180  1
  Li  Li3  1  0.365682  0.773184  0.109222  1
  Li  Li4  1  0.634318  0.226816  0.890778  1
  Li  Li5  1  0.587416  0.550338  0.789820  1
  Li  Li6  1  0.412584  0.050338  0.710180  1
  Li  Li7  1  0.365682  0.726816  0.609222  1
  V  V8  1  0.501697  0.623519  0.375430  1
  V  V9  1  0.106889  0.080818  0.366215  1
  V  V10  1  0.893111  0.580818  0.133785  1
  V  V11  1  0.498303  0.123519  0.124570  1
  V  V12  1  0.501697  0.876481  0.875430  1
  V  V13  1  0.106889  0.419182  0.866215  1
  V  V14  1  0.893111  0.919182  0.633785  1
  V  V15  1  0.498303  0.376481  0.624570  1
  P  P16  1  0.004679  0.768619  0.467439  1
  P  P17  1  0.002493  0.412868  0.303905  1
  P  P18  1  0.997507  0.912868  0.196095  1
  P  P19  1  0.995321  0.268619  0.032561  1
  P  P20  1  0.004679  0.731381  0.967439  1
  P  P21  1  0.002493  0.087132  0.803905  1
  P  P22  1  0.997507  0.587132  0.696095  1
  P  P23  1  0.995321  0.231381  0.532561  1
  O  O24  1  0.754437  0.680538  0.453557  1
  O  O25  1  0.249935  0.681631  0.449307  1
  O  O26  1  0.969097  0.206676  0.445254  1
  O  O27  1  0.990595  0.915074  0.425284  1
  O  O28  1  0.431107  0.090547  0.363225  1
  O  O29  1  0.259114  0.460483  0.342941  1
  O  O30  1  0.752275  0.467424  0.340971  1
  O  O31  1  0.500326  0.749512  0.309447  1
  O  O32  1  0.981350  0.243250  0.303160  1
  O  O33  1  0.981208  0.961552  0.279512  1
  O  O34  1  0.018792  0.461552  0.220488  1
  O  O35  1  0.018650  0.743250  0.196840  1
  O  O36  1  0.499674  0.249512  0.190553  1
  O  O37  1  0.247725  0.967424  0.159029  1
  O  O38  1  0.740886  0.960483  0.157059  1
  O  O39  1  0.568893  0.590547  0.136775  1
  O  O40  1  0.009405  0.415074  0.074716  1
  O  O41  1  0.030903  0.706676  0.054746  1
  O  O42  1  0.750065  0.181631  0.050693  1
  O  O43  1  0.245563  0.180538  0.046443  1
  O  O44  1  0.754437  0.819462  0.953557  1
  O  O45  1  0.249935  0.818369  0.949307  1
  O  O46  1  0.969097  0.293324  0.945254  1
  O  O47  1  0.990595  0.584926  0.925284  1
  O  O48  1  0.431107  0.409453  0.863225  1
  O  O49  1  0.259114  0.039517  0.842941  1
  O  O50  1  0.752275  0.032576  0.840971  1
  O  O51  1  0.500326  0.750488  0.809447  1
  O  O52  1  0.981350  0.256750  0.803160  1
  O  O53  1  0.981208  0.538448  0.779512  1
  O  O54  1  0.018792  0.038448  0.720488  1
  O  O55  1  0.018650  0.756750  0.696840  1
  O  O56  1  0.499674  0.250488  0.690553  1
  O  O57  1  0.247725  0.532576  0.659029  1
  O  O58  1  0.740886  0.539517  0.657059  1
  O  O59  1  0.568893  0.909453  0.636775  1
  O  O60  1  0.009405  0.084926  0.574716  1
  O  O61  1  0.030903  0.793324  0.554746  1
  O  O62  1  0.750065  0.318369  0.550693  1
  O  O63  1  0.245563  0.319462  0.546443  1
