# generated using pymatgen
data_Li8ZrO6
_symmetry_space_group_name_H-M   'P 1'
_cell_length_a   5.74965986
_cell_length_b   5.74965986
_cell_length_c   10.90589060
_cell_angle_alpha   90.00000000
_cell_angle_beta   90.00000000
_cell_angle_gamma   120.00000000
_symmetry_Int_Tables_number   1
_chemical_formula_structural   Li8ZrO6
_chemical_formula_sum   'Li16 Zr2 O12'
_cell_volume   312.23103922
_cell_formula_units_Z   2
loop_
 _symmetry_equiv_pos_site_id
 _symmetry_equiv_pos_as_xyz
  1  'x, y, z'
loop_
 _atom_site_type_symbol
 _atom_site_label
 _atom_site_symmetry_multiplicity
 _atom_site_fract_x
 _atom_site_fract_y
 _atom_site_fract_z
 _atom_site_occupancy
  Li  Li0  1  0.000000  0.676023  0.768295  1
  Li  Li1  1  0.000000  0.590680  0.127268  1
  Li  Li2  1  0.000000  0.409320  0.627268  1
  Li  Li3  1  0.000000  0.323977  0.268295  1
  Li  Li4  1  0.333333  0.666667  0.406997  1
  Li  Li5  1  0.333333  0.666667  0.906997  1
  Li  Li6  1  0.323977  0.323977  0.768295  1
  Li  Li7  1  0.409320  0.409320  0.127268  1
  Li  Li8  1  0.590680  0.590680  0.627268  1
  Li  Li9  1  0.323977  0.000000  0.268295  1
  Li  Li10  1  0.676023  0.676023  0.268295  1
  Li  Li11  1  0.409320  0.000000  0.627268  1
  Li  Li12  1  0.666667  0.333333  0.906997  1
  Li  Li13  1  0.666667  0.333333  0.406997  1
  Li  Li14  1  0.590680  0.000000  0.127268  1
  Li  Li15  1  0.676023  0.000000  0.768295  1
  Zr  Zr16  1  0.000000  0.000000  0.994598  1
  Zr  Zr17  1  0.000000  0.000000  0.494598  1
  O  O18  1  0.000000  0.665940  0.948523  1
  O  O19  1  0.000000  0.334060  0.448523  1
  O  O20  1  0.333333  0.666667  0.212766  1
  O  O21  1  0.000000  0.000000  0.179254  1
  O  O22  1  0.000000  0.000000  0.679254  1
  O  O23  1  0.333333  0.666667  0.712766  1
  O  O24  1  0.334060  0.334060  0.948523  1
  O  O25  1  0.334060  0.000000  0.448523  1
  O  O26  1  0.665940  0.665940  0.448523  1
  O  O27  1  0.666667  0.333333  0.712766  1
  O  O28  1  0.666667  0.333333  0.212766  1
  O  O29  1  0.665940  0.000000  0.948523  1
