# generated using pymatgen
data_Li4Mn5Sb3O16
_symmetry_space_group_name_H-M   'P 1'
_cell_length_a   6.19055499
_cell_length_b   6.19055499
_cell_length_c   9.93039512
_cell_angle_alpha   89.67468823
_cell_angle_beta   90.32531177
_cell_angle_gamma   120.67017593
_symmetry_Int_Tables_number   1
_chemical_formula_structural   Li4Mn5Sb3O16
_chemical_formula_sum   'Li4 Mn5 Sb3 O16'
_cell_volume   327.32141445
_cell_formula_units_Z   1
loop_
 _symmetry_equiv_pos_site_id
 _symmetry_equiv_pos_as_xyz
  1  'x, y, z'
loop_
 _atom_site_type_symbol
 _atom_site_label
 _atom_site_symmetry_multiplicity
 _atom_site_fract_x
 _atom_site_fract_y
 _atom_site_fract_z
 _atom_site_occupancy
  Li  Li0  1  0.662284  0.337716  0.873106  1
  Li  Li1  1  0.990149  0.009851  0.992229  1
  Li  Li2  1  0.997478  0.002522  0.506668  1
  Li  Li3  1  0.324324  0.675676  0.398582  1
  Mn  Mn4  1  0.676465  0.323535  0.511203  1
  Mn  Mn5  1  0.831779  0.168221  0.216597  1
  Mn  Mn6  1  0.344310  0.655690  0.985745  1
  Mn  Mn7  1  0.169849  0.336063  0.714380  1
  Mn  Mn8  1  0.663937  0.830151  0.714380  1
  Sb  Sb9  1  0.337457  0.169372  0.215863  1
  Sb  Sb10  1  0.830628  0.662543  0.215863  1
  Sb  Sb11  1  0.171223  0.828777  0.716068  1
  O  O12  1  0.315056  0.149937  0.604531  1
  O  O13  1  0.511315  0.488685  0.329932  1
  O  O14  1  0.652304  0.347696  0.097472  1
  O  O15  1  0.011561  0.988439  0.322903  1
  O  O16  1  0.011621  0.988379  0.817307  1
  O  O17  1  0.850063  0.684944  0.604531  1
  O  O18  1  0.510345  0.036868  0.327762  1
  O  O19  1  0.963132  0.489655  0.327762  1
  O  O20  1  0.153610  0.846390  0.103085  1
  O  O21  1  0.849510  0.150490  0.612465  1
  O  O22  1  0.032727  0.516923  0.832634  1
  O  O23  1  0.483077  0.967273  0.832634  1
  O  O24  1  0.322857  0.677143  0.598124  1
  O  O25  1  0.161264  0.308553  0.107896  1
  O  O26  1  0.479547  0.520453  0.820177  1
  O  O27  1  0.691447  0.838736  0.107896  1
