# generated using pymatgen
data_Li3Fe8(BO3)8
_symmetry_space_group_name_H-M   'P 1'
_cell_length_a   5.31624460
_cell_length_b   9.02785092
_cell_length_c   10.04298897
_cell_angle_alpha   90.50107529
_cell_angle_beta   91.31270412
_cell_angle_gamma   90.53075361
_symmetry_Int_Tables_number   1
_chemical_formula_structural   Li3Fe8(BO3)8
_chemical_formula_sum   'Li3 Fe8 B8 O24'
_cell_volume   481.83934187
_cell_formula_units_Z   1
loop_
 _symmetry_equiv_pos_site_id
 _symmetry_equiv_pos_as_xyz
  1  'x, y, z'
loop_
 _atom_site_type_symbol
 _atom_site_label
 _atom_site_symmetry_multiplicity
 _atom_site_fract_x
 _atom_site_fract_y
 _atom_site_fract_z
 _atom_site_occupancy
  Li  Li0  1  0.650959  0.999507  0.087371  1
  Li  Li1  1  0.155688  0.502706  0.094423  1
  Li  Li2  1  0.342307  0.991426  0.356193  1
  Fe  Fe3  1  0.151809  0.159057  0.117514  1
  Fe  Fe4  1  0.838259  0.170491  0.374297  1
  Fe  Fe5  1  0.340183  0.334846  0.868876  1
  Fe  Fe6  1  0.663434  0.336007  0.626055  1
  Fe  Fe7  1  0.334926  0.660538  0.372424  1
  Fe  Fe8  1  0.161538  0.841020  0.624154  1
  Fe  Fe9  1  0.665353  0.656774  0.122148  1
  Fe  Fe10  1  0.838232  0.832906  0.862997  1
  B  B11  1  0.174593  0.173782  0.618702  1
  B  B12  1  0.333333  0.325930  0.371856  1
  B  B13  1  0.831522  0.167330  0.872594  1
  B  B14  1  0.665511  0.330546  0.121102  1
  B  B15  1  0.332987  0.670297  0.877351  1
  B  B16  1  0.657148  0.668772  0.620843  1
  B  B17  1  0.164476  0.830662  0.127562  1
  B  B18  1  0.830907  0.833820  0.367648  1
  O  O19  1  0.286308  0.042266  0.607021  1
  O  O20  1  0.081452  0.190059  0.910714  1
  O  O21  1  0.722760  0.031405  0.890384  1
  O  O22  1  0.197332  0.196859  0.335656  1
  O  O23  1  0.302591  0.301416  0.669020  1
  O  O24  1  0.769862  0.196398  0.168753  1
  O  O25  1  0.923964  0.195404  0.573969  1
  O  O26  1  0.413263  0.327036  0.075965  1
  O  O27  1  0.233274  0.461454  0.353310  1
  O  O28  1  0.576328  0.307332  0.423736  1
  O  O29  1  0.692466  0.288170  0.827483  1
  O  O30  1  0.230259  0.531305  0.891191  1
  O  O31  1  0.807646  0.455765  0.118168  1
  O  O32  1  0.275243  0.695427  0.164398  1
  O  O33  1  0.417252  0.685542  0.563797  1
  O  O34  1  0.764690  0.532676  0.631638  1
  O  O35  1  0.582892  0.694294  0.916050  1
  O  O36  1  0.087437  0.822367  0.399528  1
  O  O37  1  0.189212  0.788682  0.835068  1
  O  O38  1  0.688256  0.709309  0.333047  1
  O  O39  1  0.784936  0.795372  0.668187  1
  O  O40  1  0.302884  0.959973  0.142893  1
  O  O41  1  0.915966  0.832076  0.079554  1
  O  O42  1  0.718708  0.971093  0.365349  1
