# generated using pymatgen
data_LiSbO3
_symmetry_space_group_name_H-M   'P 1'
_cell_length_a   6.02070445
_cell_length_b   6.02070445
_cell_length_c   6.02070445
_cell_angle_alpha   90.00000000
_cell_angle_beta   90.00000000
_cell_angle_gamma   90.00000000
_symmetry_Int_Tables_number   1
_chemical_formula_structural   LiSbO3
_chemical_formula_sum   'Li4 Sb4 O12'
_cell_volume   218.24380561
_cell_formula_units_Z   4
loop_
 _symmetry_equiv_pos_site_id
 _symmetry_equiv_pos_as_xyz
  1  'x, y, z'
loop_
 _atom_site_type_symbol
 _atom_site_label
 _atom_site_symmetry_multiplicity
 _atom_site_fract_x
 _atom_site_fract_y
 _atom_site_fract_z
 _atom_site_occupancy
  Li  Li0  1  0.871896  0.871896  0.871896  1
  Li  Li1  1  0.628104  0.128104  0.371896  1
  Li  Li2  1  0.371896  0.628104  0.128104  1
  Li  Li3  1  0.128104  0.371896  0.628104  1
  Sb  Sb4  1  0.092107  0.907893  0.407893  1
  Sb  Sb5  1  0.407893  0.092107  0.907893  1
  Sb  Sb6  1  0.592107  0.592107  0.592107  1
  Sb  Sb7  1  0.907893  0.407893  0.092107  1
  O  O8  1  0.984957  0.222989  0.362409  1
  O  O9  1  0.137591  0.015043  0.722989  1
  O  O10  1  0.222989  0.362409  0.984957  1
  O  O11  1  0.277011  0.637591  0.484957  1
  O  O12  1  0.362409  0.984957  0.222989  1
  O  O13  1  0.515043  0.777011  0.862409  1
  O  O14  1  0.484957  0.277011  0.637591  1
  O  O15  1  0.637591  0.484957  0.277011  1
  O  O16  1  0.722989  0.137591  0.015043  1
  O  O17  1  0.777011  0.862409  0.515043  1
  O  O18  1  0.862409  0.515043  0.777011  1
  O  O19  1  0.015043  0.722989  0.137591  1
