# generated using pymatgen
data_LiFe2C2O7
_symmetry_space_group_name_H-M   'P 1'
_cell_length_a   9.33102009
_cell_length_b   5.98978418
_cell_length_c   10.44533683
_cell_angle_alpha   90.00000000
_cell_angle_beta   115.98097662
_cell_angle_gamma   90.00000000
_symmetry_Int_Tables_number   1
_chemical_formula_structural   LiFe2C2O7
_chemical_formula_sum   'Li4 Fe8 C8 O28'
_cell_volume   524.79928421
_cell_formula_units_Z   4
loop_
 _symmetry_equiv_pos_site_id
 _symmetry_equiv_pos_as_xyz
  1  'x, y, z'
loop_
 _atom_site_type_symbol
 _atom_site_label
 _atom_site_symmetry_multiplicity
 _atom_site_fract_x
 _atom_site_fract_y
 _atom_site_fract_z
 _atom_site_occupancy
  Li  Li0  1  0.259167  0.059563  0.492785  1
  Li  Li1  1  0.240833  0.559563  0.507215  1
  Li  Li2  1  0.759167  0.440437  0.492785  1
  Li  Li3  1  0.740833  0.940437  0.507215  1
  Fe  Fe4  1  0.096186  0.884840  0.161858  1
  Fe  Fe5  1  0.709247  0.919226  0.988287  1
  Fe  Fe6  1  0.596186  0.615160  0.161858  1
  Fe  Fe7  1  0.209247  0.580774  0.988287  1
  Fe  Fe8  1  0.790753  0.419226  0.011713  1
  Fe  Fe9  1  0.403814  0.384840  0.838142  1
  Fe  Fe10  1  0.290753  0.080774  0.011713  1
  Fe  Fe11  1  0.903814  0.115160  0.838142  1
  C  C12  1  0.157491  0.343426  0.225694  1
  C  C13  1  0.927460  0.760310  0.332572  1
  C  C14  1  0.657491  0.156574  0.225694  1
  C  C15  1  0.572540  0.260310  0.667428  1
  C  C16  1  0.427460  0.739690  0.332572  1
  C  C17  1  0.342509  0.843426  0.774306  1
  C  C18  1  0.072540  0.239690  0.667428  1
  C  C19  1  0.842509  0.656574  0.774306  1
  O  O20  1  0.894244  0.123461  0.021430  1
  O  O21  1  0.112374  0.516511  0.139977  1
  O  O22  1  0.299079  0.805144  0.342387  1
  O  O23  1  0.913599  0.789176  0.200014  1
  O  O24  1  0.140662  0.326951  0.339000  1
  O  O25  1  0.394244  0.376539  0.021430  1
  O  O26  1  0.612374  0.983489  0.139977  1
  O  O27  1  0.718156  0.324055  0.182763  1
  O  O28  1  0.442478  0.298048  0.561580  1
  O  O29  1  0.057522  0.798048  0.438420  1
  O  O30  1  0.799079  0.694856  0.342387  1
  O  O31  1  0.781844  0.824055  0.817237  1
  O  O32  1  0.413599  0.710824  0.200014  1
  O  O33  1  0.359338  0.826951  0.661000  1
  O  O34  1  0.640662  0.173049  0.339000  1
  O  O35  1  0.586401  0.289176  0.799986  1
  O  O36  1  0.218156  0.175945  0.182763  1
  O  O37  1  0.200921  0.305144  0.657613  1
  O  O38  1  0.942478  0.201952  0.561580  1
  O  O39  1  0.557522  0.701952  0.438420  1
  O  O40  1  0.281844  0.675945  0.817237  1
  O  O41  1  0.387626  0.016511  0.860023  1
  O  O42  1  0.605756  0.623461  0.978570  1
  O  O43  1  0.859338  0.673049  0.661000  1
  O  O44  1  0.086401  0.210824  0.799986  1
  O  O45  1  0.700921  0.194856  0.657613  1
  O  O46  1  0.887626  0.483489  0.860023  1
  O  O47  1  0.105756  0.876539  0.978570  1
