# generated using pymatgen
data_Li2FeP2HO8
_symmetry_space_group_name_H-M   'P 1'
_cell_length_a   4.87875046
_cell_length_b   8.11031199
_cell_length_c   7.58557210
_cell_angle_alpha   90.00000000
_cell_angle_beta   104.30797272
_cell_angle_gamma   90.00000000
_symmetry_Int_Tables_number   1
_chemical_formula_structural   Li2FeP2HO8
_chemical_formula_sum   'Li4 Fe2 P4 H2 O16'
_cell_volume   290.83718092
_cell_formula_units_Z   2
loop_
 _symmetry_equiv_pos_site_id
 _symmetry_equiv_pos_as_xyz
  1  'x, y, z'
loop_
 _atom_site_type_symbol
 _atom_site_label
 _atom_site_symmetry_multiplicity
 _atom_site_fract_x
 _atom_site_fract_y
 _atom_site_fract_z
 _atom_site_occupancy
  Li  Li0  1  0.364414  0.633082  0.906430  1
  Li  Li1  1  0.635586  0.133082  0.093570  1
  Li  Li2  1  0.855984  0.865342  0.410565  1
  Li  Li3  1  0.144016  0.365342  0.589435  1
  Fe  Fe4  1  0.249392  0.000423  0.744681  1
  Fe  Fe5  1  0.750608  0.500423  0.255319  1
  P  P6  1  0.383815  0.652290  0.518753  1
  P  P7  1  0.616185  0.152290  0.481247  1
  P  P8  1  0.878401  0.843711  0.010896  1
  P  P9  1  0.121599  0.343711  0.989104  1
  H  H10  1  0.791248  0.487266  0.763250  1
  H  H11  1  0.208752  0.987266  0.236750  1
  O  O12  1  0.367243  0.454178  0.091037  1
  O  O13  1  0.265783  0.821847  0.561257  1
  O  O14  1  0.399045  0.176748  0.598470  1
  O  O15  1  0.510239  0.559675  0.697624  1
  O  O16  1  0.632757  0.954178  0.908963  1
  O  O17  1  0.766147  0.677611  0.061987  1
  O  O18  1  0.489761  0.059675  0.302376  1
  O  O19  1  0.600955  0.676748  0.401530  1
  O  O20  1  0.894958  0.323267  0.096599  1
  O  O21  1  0.001180  0.938850  0.197318  1
  O  O22  1  0.734217  0.321847  0.438743  1
  O  O23  1  0.866420  0.045809  0.590994  1
  O  O24  1  0.998820  0.438850  0.802682  1
  O  O25  1  0.105042  0.823267  0.903401  1
  O  O26  1  0.233853  0.177611  0.938013  1
  O  O27  1  0.133580  0.545809  0.409006  1
