# generated using pymatgen
data_LiNiH12(SO7)2
_symmetry_space_group_name_H-M   'P 1'
_cell_length_a   5.89845426
_cell_length_b   11.52373546
_cell_length_c   8.70726659
_cell_angle_alpha   90.00000000
_cell_angle_beta   103.80901037
_cell_angle_gamma   90.00000000
_symmetry_Int_Tables_number   1
_chemical_formula_structural   LiNiH12(SO7)2
_chemical_formula_sum   'Li2 Ni2 H24 S4 O28'
_cell_volume   574.74584534
_cell_formula_units_Z   2
loop_
 _symmetry_equiv_pos_site_id
 _symmetry_equiv_pos_as_xyz
  1  'x, y, z'
loop_
 _atom_site_type_symbol
 _atom_site_label
 _atom_site_symmetry_multiplicity
 _atom_site_fract_x
 _atom_site_fract_y
 _atom_site_fract_z
 _atom_site_occupancy
  Li  Li0  1  0.653289  0.124162  0.614847  1
  Li  Li1  1  0.346711  0.624162  0.385153  1
  Ni  Ni2  1  0.997505  0.001076  0.249643  1
  Ni  Ni3  1  0.002495  0.501076  0.750357  1
  H  H4  1  0.016219  0.807938  0.122059  1
  H  H5  1  0.669743  0.854901  0.216857  1
  H  H6  1  0.316083  0.058165  0.134258  1
  H  H7  1  0.065669  0.400314  0.019079  1
  H  H8  1  0.089397  0.626918  0.007537  1
  H  H9  1  0.672166  0.091850  0.036045  1
  H  H10  1  0.327834  0.591850  0.963955  1
  H  H11  1  0.910603  0.126918  0.992463  1
  H  H12  1  0.934331  0.900314  0.980921  1
  H  H13  1  0.683917  0.558165  0.865742  1
  H  H14  1  0.330257  0.354901  0.783143  1
  H  H15  1  0.983781  0.307938  0.877941  1
  H  H16  1  0.019321  0.694268  0.613798  1
  H  H17  1  0.674988  0.646597  0.715685  1
  H  H18  1  0.318964  0.447883  0.636722  1
  H  H19  1  0.078303  0.097433  0.519617  1
  H  H20  1  0.090198  0.871424  0.503585  1
  H  H21  1  0.674379  0.415936  0.536367  1
  H  H22  1  0.325621  0.915936  0.463633  1
  H  H23  1  0.909802  0.371424  0.496415  1
  H  H24  1  0.921697  0.597433  0.480383  1
  H  H25  1  0.681036  0.947883  0.363278  1
  H  H26  1  0.325012  0.146597  0.284315  1
  H  H27  1  0.980679  0.194268  0.386202  1
  S  S28  1  0.726406  0.634407  0.175632  1
  S  S29  1  0.273594  0.134407  0.824368  1
  S  S30  1  0.726868  0.865709  0.658590  1
  S  S31  1  0.273132  0.365709  0.341410  1
  O  O32  1  0.247049  0.420679  0.186346  1
  O  O33  1  0.708721  0.940233  0.253464  1
  O  O34  1  0.041174  0.888995  0.088785  1
  O  O35  1  0.576059  0.738672  0.176343  1
  O  O36  1  0.970874  0.669489  0.170016  1
  O  O37  1  0.836724  0.116018  0.082460  1
  O  O38  1  0.621263  0.563087  0.034323  1
  O  O39  1  0.378737  0.063087  0.965677  1
  O  O40  1  0.163276  0.616018  0.917540  1
  O  O41  1  0.029126  0.169489  0.829984  1
  O  O42  1  0.423941  0.238672  0.823657  1
  O  O43  1  0.958826  0.388995  0.911215  1
  O  O44  1  0.291279  0.440233  0.746536  1
  O  O45  1  0.752951  0.920679  0.813654  1
  O  O46  1  0.266823  0.067873  0.677557  1
  O  O47  1  0.712157  0.563865  0.755524  1
  O  O48  1  0.045429  0.612069  0.581593  1
  O  O49  1  0.566992  0.763722  0.634725  1
  O  O50  1  0.956972  0.828435  0.632501  1
  O  O51  1  0.831945  0.385082  0.585678  1
  O  O52  1  0.623259  0.956980  0.535166  1
  O  O53  1  0.376741  0.456980  0.464834  1
  O  O54  1  0.168055  0.885082  0.414322  1
  O  O55  1  0.043028  0.328435  0.367499  1
  O  O56  1  0.433008  0.263722  0.365275  1
  O  O57  1  0.954571  0.112069  0.418407  1
  O  O58  1  0.287843  0.063865  0.244476  1
  O  O59  1  0.733177  0.567873  0.322443  1
