# generated using pymatgen
data_Li2Cr2P2O7F2
_symmetry_space_group_name_H-M   'P 1'
_cell_length_a   6.91238647
_cell_length_b   10.59377932
_cell_length_c   10.85367743
_cell_angle_alpha   90.00000000
_cell_angle_beta   90.00000000
_cell_angle_gamma   90.00000000
_symmetry_Int_Tables_number   1
_chemical_formula_structural   Li2Cr2P2O7F2
_chemical_formula_sum   'Li8 Cr8 P8 O28 F8'
_cell_volume   794.79631263
_cell_formula_units_Z   4
loop_
 _symmetry_equiv_pos_site_id
 _symmetry_equiv_pos_as_xyz
  1  'x, y, z'
loop_
 _atom_site_type_symbol
 _atom_site_label
 _atom_site_symmetry_multiplicity
 _atom_site_fract_x
 _atom_site_fract_y
 _atom_site_fract_z
 _atom_site_occupancy
  Li  Li0  1  0.333072  0.999020  0.750757  1
  Li  Li1  1  0.666928  0.500980  0.750757  1
  Li  Li2  1  0.833072  0.000980  0.749243  1
  Li  Li3  1  0.166928  0.499020  0.749243  1
  Li  Li4  1  0.166928  0.999020  0.250757  1
  Li  Li5  1  0.833072  0.500980  0.250757  1
  Li  Li6  1  0.333072  0.499020  0.249243  1
  Li  Li7  1  0.666928  0.000980  0.249243  1
  Cr  Cr8  1  0.000000  0.000000  0.000000  1
  Cr  Cr9  1  0.000000  0.500000  0.000000  1
  Cr  Cr10  1  0.000000  0.250000  0.823724  1
  Cr  Cr11  1  0.500000  0.750000  0.676276  1
  Cr  Cr12  1  0.500000  0.000000  0.500000  1
  Cr  Cr13  1  0.500000  0.500000  0.500000  1
  Cr  Cr14  1  0.500000  0.250000  0.323724  1
  Cr  Cr15  1  0.000000  0.750000  0.176276  1
  P  P16  1  0.287730  0.751648  0.938506  1
  P  P17  1  0.712270  0.748352  0.938506  1
  P  P18  1  0.787730  0.248352  0.561494  1
  P  P19  1  0.212270  0.251648  0.561494  1
  P  P20  1  0.212270  0.751648  0.438506  1
  P  P21  1  0.787730  0.748352  0.438506  1
  P  P22  1  0.287730  0.251648  0.061494  1
  P  P23  1  0.712270  0.248352  0.061494  1
  O  O24  1  0.167474  0.329493  0.968496  1
  O  O25  1  0.832526  0.170507  0.968496  1
  O  O26  1  0.500000  0.750000  0.004863  1
  O  O27  1  0.214804  0.615939  0.925206  1
  O  O28  1  0.785196  0.884061  0.925206  1
  O  O29  1  0.312643  0.817268  0.814454  1
  O  O30  1  0.687357  0.682732  0.814454  1
  O  O31  1  0.812643  0.182732  0.685546  1
  O  O32  1  0.187357  0.317268  0.685546  1
  O  O33  1  0.285196  0.115939  0.574794  1
  O  O34  1  0.714804  0.384061  0.574794  1
  O  O35  1  0.000000  0.250000  0.495137  1
  O  O36  1  0.667474  0.670507  0.531504  1
  O  O37  1  0.332526  0.829493  0.531504  1
  O  O38  1  0.332526  0.329493  0.468496  1
  O  O39  1  0.667474  0.170507  0.468496  1
  O  O40  1  0.000000  0.750000  0.504863  1
  O  O41  1  0.285196  0.615939  0.425206  1
  O  O42  1  0.714804  0.884061  0.425206  1
  O  O43  1  0.812643  0.682732  0.314454  1
  O  O44  1  0.187357  0.817268  0.314454  1
  O  O45  1  0.312643  0.317268  0.185546  1
  O  O46  1  0.687357  0.182732  0.185546  1
  O  O47  1  0.214804  0.115939  0.074794  1
  O  O48  1  0.785196  0.384061  0.074794  1
  O  O49  1  0.500000  0.250000  0.995137  1
  O  O50  1  0.167474  0.829493  0.031504  1
  O  O51  1  0.832526  0.670507  0.031504  1
  F  F52  1  0.089491  0.041278  0.808171  1
  F  F53  1  0.910509  0.458722  0.808171  1
  F  F54  1  0.410509  0.541278  0.691829  1
  F  F55  1  0.589491  0.958722  0.691829  1
  F  F56  1  0.410509  0.041278  0.308171  1
  F  F57  1  0.589491  0.458722  0.308171  1
  F  F58  1  0.089491  0.541278  0.191829  1
  F  F59  1  0.910509  0.958722  0.191829  1
