# generated using pymatgen
data_LiCoSiO4
_symmetry_space_group_name_H-M   'P 1'
_cell_length_a   8.55431826
_cell_length_b   8.55431826
_cell_length_c   8.55431826
_cell_angle_alpha   107.69632806
_cell_angle_beta   107.69632806
_cell_angle_gamma   107.69632806
_symmetry_Int_Tables_number   1
_chemical_formula_structural   LiCoSiO4
_chemical_formula_sum   'Li6 Co6 Si6 O24'
_cell_volume   511.09134338
_cell_formula_units_Z   6
loop_
 _symmetry_equiv_pos_site_id
 _symmetry_equiv_pos_as_xyz
  1  'x, y, z'
loop_
 _atom_site_type_symbol
 _atom_site_label
 _atom_site_symmetry_multiplicity
 _atom_site_fract_x
 _atom_site_fract_y
 _atom_site_fract_z
 _atom_site_occupancy
  Li  Li0  1  0.721663  0.894368  0.123594  1
  Li  Li1  1  0.607074  0.431342  0.209431  1
  Li  Li2  1  0.209431  0.607074  0.431342  1
  Li  Li3  1  0.123594  0.721663  0.894368  1
  Li  Li4  1  0.431342  0.209431  0.607074  1
  Li  Li5  1  0.894368  0.123594  0.721663  1
  Co  Co6  1  0.233163  0.457148  0.052819  1
  Co  Co7  1  0.943453  0.767664  0.534461  1
  Co  Co8  1  0.534461  0.943453  0.767664  1
  Co  Co9  1  0.457148  0.052819  0.233163  1
  Co  Co10  1  0.052819  0.233163  0.457148  1
  Co  Co11  1  0.767664  0.534461  0.943453  1
  Si  Si12  1  0.094887  0.875591  0.280130  1
  Si  Si13  1  0.568592  0.794675  0.387428  1
  Si  Si14  1  0.875591  0.280130  0.094887  1
  Si  Si15  1  0.794675  0.387428  0.568592  1
  Si  Si16  1  0.387428  0.568592  0.794675  1
  Si  Si17  1  0.280130  0.094887  0.875591  1
  O  O18  1  0.972791  0.990350  0.305222  1
  O  O19  1  0.005435  0.726448  0.065426  1
  O  O20  1  0.582457  0.913197  0.267712  1
  O  O21  1  0.086696  0.766220  0.408483  1
  O  O22  1  0.637041  0.929384  0.602083  1
  O  O23  1  0.358128  0.635674  0.295221  1
  O  O24  1  0.703244  0.693183  0.374404  1
  O  O25  1  0.766220  0.408483  0.086696  1
  O  O26  1  0.349067  0.303721  0.023344  1
  O  O27  1  0.023344  0.349067  0.303721  1
  O  O28  1  0.726448  0.065426  0.005435  1
  O  O29  1  0.374404  0.703244  0.693183  1
  O  O30  1  0.305222  0.972791  0.990350  1
  O  O31  1  0.929384  0.602083  0.637041  1
  O  O32  1  0.635674  0.295221  0.358128  1
  O  O33  1  0.295221  0.358128  0.635674  1
  O  O34  1  0.602083  0.637041  0.929384  1
  O  O35  1  0.913197  0.267712  0.582457  1
  O  O36  1  0.267712  0.582457  0.913197  1
  O  O37  1  0.693183  0.374404  0.703244  1
  O  O38  1  0.303721  0.023344  0.349067  1
  O  O39  1  0.990350  0.305222  0.972791  1
  O  O40  1  0.408483  0.086696  0.766220  1
  O  O41  1  0.065426  0.005435  0.726448  1
