# generated using pymatgen
data_La6Cu6O17
_symmetry_space_group_name_H-M   'P 1'
_cell_length_a   6.77290152
_cell_length_b   6.77290152
_cell_length_c   10.52509253
_cell_angle_alpha   86.92661625
_cell_angle_beta   93.07338375
_cell_angle_gamma   59.69453999
_symmetry_Int_Tables_number   1
_chemical_formula_structural   La6Cu6O17
_chemical_formula_sum   'La6 Cu6 O17'
_cell_volume   414.40623365
_cell_formula_units_Z   1
loop_
 _symmetry_equiv_pos_site_id
 _symmetry_equiv_pos_as_xyz
  1  'x, y, z'
loop_
 _atom_site_type_symbol
 _atom_site_label
 _atom_site_symmetry_multiplicity
 _atom_site_fract_x
 _atom_site_fract_y
 _atom_site_fract_z
 _atom_site_occupancy
  La  La0  1  0.474506  0.525494  0.757785  1
  La  La1  1  0.861692  0.805358  0.260086  1
  La  La2  1  0.805358  0.861692  0.739914  1
  La  La3  1  0.525494  0.474506  0.242215  1
  La  La4  1  0.194642  0.138308  0.260086  1
  La  La5  1  0.138308  0.194642  0.739914  1
  Cu  Cu6  1  0.336879  0.336879  0.500000  1
  Cu  Cu7  1  0.663121  0.663121  0.500000  1
  Cu  Cu8  1  0.000000  0.000000  0.000000  1
  Cu  Cu9  1  0.000000  0.000000  0.500000  1
  Cu  Cu10  1  0.000000  0.500000  0.000000  1
  Cu  Cu11  1  0.500000  1.000000  0.000000  1
  O  O12  1  0.146171  0.515222  0.857242  1
  O  O13  1  0.174419  0.825581  0.148944  1
  O  O14  1  0.515222  0.146171  0.142758  1
  O  O15  1  0.834493  0.834493  0.000000  1
  O  O16  1  0.831106  0.831106  0.500000  1
  O  O17  1  0.500000  0.500000  0.500000  1
  O  O18  1  0.825581  0.174419  0.851056  1
  O  O19  1  0.867111  0.132889  0.336600  1
  O  O20  1  0.484778  0.853829  0.857242  1
  O  O21  1  0.132889  0.867111  0.663400  1
  O  O22  1  0.853829  0.484778  0.142758  1
  O  O23  1  0.779774  0.544593  0.666719  1
  O  O24  1  0.168894  0.168894  0.500000  1
  O  O25  1  0.165507  0.165507  0.000000  1
  O  O26  1  0.220226  0.455407  0.333281  1
  O  O27  1  0.544593  0.779774  0.333281  1
  O  O28  1  0.455407  0.220226  0.666719  1
