# generated using pymatgen
data_Li8Mn13Cr3O32
_symmetry_space_group_name_H-M   'P 1'
_cell_length_a   8.28513523
_cell_length_b   8.28513523
_cell_length_c   10.35795680
_cell_angle_alpha   66.62814226
_cell_angle_beta   113.37185774
_cell_angle_gamma   90.69529201
_symmetry_Int_Tables_number   1
_chemical_formula_structural   Li8Mn13Cr3O32
_chemical_formula_sum   'Li8 Mn13 Cr3 O32'
_cell_volume   590.14997580
_cell_formula_units_Z   1
loop_
 _symmetry_equiv_pos_site_id
 _symmetry_equiv_pos_as_xyz
  1  'x, y, z'
loop_
 _atom_site_type_symbol
 _atom_site_label
 _atom_site_symmetry_multiplicity
 _atom_site_fract_x
 _atom_site_fract_y
 _atom_site_fract_z
 _atom_site_occupancy
  Li  Li0  1  0.184788  0.815212  0.116114  1
  Li  Li1  1  0.682288  0.317712  0.112620  1
  Li  Li2  1  0.566091  0.934185  0.383519  1
  Li  Li3  1  0.065815  0.433909  0.383519  1
  Li  Li4  1  0.433909  0.065815  0.616481  1
  Li  Li5  1  0.934185  0.566091  0.616481  1
  Li  Li6  1  0.815212  0.184788  0.883886  1
  Li  Li7  1  0.317712  0.682288  0.887380  1
  Mn  Mn8  1  0.000000  0.500000  0.000000  1
  Mn  Mn9  1  0.500000  0.000000  0.000000  1
  Mn  Mn10  1  0.121219  0.126725  0.245118  1
  Mn  Mn11  1  0.873275  0.878781  0.245118  1
  Mn  Mn12  1  0.374918  0.374414  0.250129  1
  Mn  Mn13  1  0.625586  0.625082  0.250129  1
  Mn  Mn14  1  0.000000  0.000000  0.500000  1
  Mn  Mn15  1  0.248687  0.751313  0.498926  1
  Mn  Mn16  1  0.751313  0.248687  0.501074  1
  Mn  Mn17  1  0.625082  0.625586  0.749871  1
  Mn  Mn18  1  0.126725  0.121219  0.754882  1
  Mn  Mn19  1  0.878781  0.873275  0.754882  1
  Mn  Mn20  1  0.374414  0.374918  0.749871  1
  Cr  Cr21  1  0.748583  0.748583  0.000000  1
  Cr  Cr22  1  0.251417  0.251417  0.000000  1
  Cr  Cr23  1  0.500000  0.500000  0.500000  1
  O  O24  1  0.020040  0.254197  0.020204  1
  O  O25  1  0.745803  0.979960  0.020204  1
  O  O26  1  0.247801  0.481020  0.024069  1
  O  O27  1  0.518980  0.752199  0.024069  1
  O  O28  1  0.854512  0.644796  0.236428  1
  O  O29  1  0.355204  0.145488  0.236428  1
  O  O30  1  0.143612  0.355069  0.255198  1
  O  O31  1  0.644931  0.856388  0.255198  1
  O  O32  1  0.395658  0.604342  0.264265  1
  O  O33  1  0.888454  0.111546  0.246120  1
  O  O34  1  0.105090  0.894910  0.242062  1
  O  O35  1  0.605832  0.394168  0.243816  1
  O  O36  1  0.503430  0.268236  0.477021  1
  O  O37  1  0.731764  0.496570  0.477021  1
  O  O38  1  0.999528  0.774906  0.474189  1
  O  O39  1  0.225094  0.000472  0.474189  1
  O  O40  1  0.496570  0.731764  0.522979  1
  O  O41  1  0.268236  0.503430  0.522979  1
  O  O42  1  0.000472  0.225094  0.525811  1
  O  O43  1  0.774906  0.999528  0.525811  1
  O  O44  1  0.604342  0.395658  0.735735  1
  O  O45  1  0.394168  0.605832  0.756184  1
  O  O46  1  0.894910  0.105090  0.757938  1
  O  O47  1  0.111546  0.888454  0.753880  1
  O  O48  1  0.355069  0.143612  0.744802  1
  O  O49  1  0.644796  0.854512  0.763572  1
  O  O50  1  0.145488  0.355204  0.763572  1
  O  O51  1  0.856388  0.644931  0.744802  1
  O  O52  1  0.481020  0.247801  0.975931  1
  O  O53  1  0.979960  0.745803  0.979796  1
  O  O54  1  0.752199  0.518980  0.975931  1
  O  O55  1  0.254197  0.020040  0.979796  1
