# generated using pymatgen
data_LiMn2(BO3)2
_symmetry_space_group_name_H-M   'P 1'
_cell_length_a   5.23662954
_cell_length_b   9.08575471
_cell_length_c   10.34468366
_cell_angle_alpha   88.52474870
_cell_angle_beta   89.33548053
_cell_angle_gamma   88.50569660
_symmetry_Int_Tables_number   1
_chemical_formula_structural   LiMn2(BO3)2
_chemical_formula_sum   'Li4 Mn8 B8 O24'
_cell_volume   491.82705821
_cell_formula_units_Z   4
loop_
 _symmetry_equiv_pos_site_id
 _symmetry_equiv_pos_as_xyz
  1  'x, y, z'
loop_
 _atom_site_type_symbol
 _atom_site_label
 _atom_site_symmetry_multiplicity
 _atom_site_fract_x
 _atom_site_fract_y
 _atom_site_fract_z
 _atom_site_occupancy
  Li  Li0  1  0.055172  0.066731  0.318305  1
  Li  Li1  1  0.111129  0.074060  0.850767  1
  Li  Li2  1  0.413430  0.420937  0.061681  1
  Li  Li3  1  0.409083  0.437047  0.599067  1
  Mn  Mn4  1  0.091996  0.723704  0.378947  1
  Mn  Mn5  1  0.031951  0.417849  0.868377  1
  Mn  Mn6  1  0.451904  0.076350  0.118717  1
  Mn  Mn7  1  0.412173  0.776766  0.620496  1
  Mn  Mn8  1  0.564927  0.268128  0.365162  1
  Mn  Mn9  1  0.618105  0.889999  0.875746  1
  Mn  Mn10  1  0.892531  0.604819  0.122037  1
  Mn  Mn11  1  0.927592  0.233232  0.611770  1
  B  B12  1  0.071696  0.419427  0.379392  1
  B  B13  1  0.118539  0.751399  0.865674  1
  B  B14  1  0.390497  0.742713  0.132529  1
  B  B15  1  0.438127  0.082783  0.633395  1
  B  B16  1  0.578301  0.925575  0.371292  1
  B  B17  1  0.577652  0.240312  0.882703  1
  B  B18  1  0.913735  0.258653  0.114156  1
  B  B19  1  0.913471  0.576435  0.622391  1
  O  O20  1  0.065059  0.140104  0.139998  1
  O  O21  1  0.081477  0.680370  0.567340  1
  O  O22  1  0.016038  0.389851  0.060750  1
  O  O23  1  0.040688  0.449835  0.678709  1
  O  O24  1  0.153636  0.758584  0.195244  1
  O  O25  1  0.186862  0.079694  0.664833  1
  O  O26  1  0.321991  0.437596  0.405904  1
  O  O27  1  0.356502  0.739986  0.803553  1
  O  O28  1  0.450047  0.048292  0.308760  1
  O  O29  1  0.472930  0.104755  0.928236  1
  O  O30  1  0.408670  0.828793  0.434367  1
  O  O31  1  0.430351  0.363783  0.875771  1
  O  O32  1  0.504255  0.609541  0.114631  1
  O  O33  1  0.547360  0.207619  0.577809  1
  O  O34  1  0.505108  0.868248  0.081428  1
  O  O35  1  0.592437  0.956260  0.660879  1
  O  O36  1  0.647567  0.263533  0.143303  1
  O  O37  1  0.659887  0.590663  0.617189  1
  O  O38  1  0.831951  0.908618  0.371615  1
  O  O39  1  0.838633  0.234365  0.847701  1
  O  O40  1  0.924264  0.540966  0.333621  1
  O  O41  1  0.006010  0.624100  0.913910  1
  O  O42  1  0.954131  0.284514  0.402760  1
  O  O43  1  0.001461  0.882339  0.887176  1
