# generated using pymatgen
data_Ba3Ga4O9
_symmetry_space_group_name_H-M   'P 1'
_cell_length_a   7.13116325
_cell_length_b   8.35370690
_cell_length_c   10.09572481
_cell_angle_alpha   85.06627376
_cell_angle_beta   73.15274769
_cell_angle_gamma   74.61485832
_symmetry_Int_Tables_number   1
_chemical_formula_structural   Ba3Ga4O9
_chemical_formula_sum   'Ba6 Ga8 O18'
_cell_volume   554.95218691
_cell_formula_units_Z   2
loop_
 _symmetry_equiv_pos_site_id
 _symmetry_equiv_pos_as_xyz
  1  'x, y, z'
loop_
 _atom_site_type_symbol
 _atom_site_label
 _atom_site_symmetry_multiplicity
 _atom_site_fract_x
 _atom_site_fract_y
 _atom_site_fract_z
 _atom_site_occupancy
  Ba  Ba0  1  0.054884  0.055513  0.690734  1
  Ba  Ba1  1  0.181555  0.566518  0.668357  1
  Ba  Ba2  1  0.306128  0.218148  0.964646  1
  Ba  Ba3  1  0.693872  0.781852  0.035354  1
  Ba  Ba4  1  0.818445  0.433482  0.331643  1
  Ba  Ba5  1  0.945116  0.944487  0.309266  1
  Ga  Ga6  1  0.402227  0.174163  0.303162  1
  Ga  Ga7  1  0.340843  0.550352  0.230674  1
  Ga  Ga8  1  0.739356  0.258598  0.060028  1
  Ga  Ga9  1  0.559629  0.190094  0.585206  1
  Ga  Ga10  1  0.440371  0.809906  0.414794  1
  Ga  Ga11  1  0.260644  0.741402  0.939972  1
  Ga  Ga12  1  0.659157  0.449648  0.769326  1
  Ga  Ga13  1  0.597773  0.825837  0.696838  1
  O  O14  1  0.261046  0.017978  0.391134  1
  O  O15  1  0.221090  0.371537  0.267588  1
  O  O16  1  0.220898  0.727327  0.131137  1
  O  O17  1  0.567373  0.110009  0.121667  1
  O  O18  1  0.034410  0.808034  0.878062  1
  O  O19  1  0.300518  0.239944  0.698278  1
  O  O20  1  0.304339  0.648602  0.399861  1
  O  O21  1  0.585465  0.201974  0.394036  1
  O  O22  1  0.615286  0.476236  0.133731  1
  O  O23  1  0.384714  0.523764  0.866269  1
  O  O24  1  0.414535  0.798026  0.605964  1
  O  O25  1  0.695661  0.351398  0.600139  1
  O  O26  1  0.699482  0.760056  0.301722  1
  O  O27  1  0.965590  0.191966  0.121938  1
  O  O28  1  0.432627  0.889991  0.878333  1
  O  O29  1  0.779102  0.272673  0.868863  1
  O  O30  1  0.778910  0.628463  0.732412  1
  O  O31  1  0.738954  0.982022  0.608866  1
