# generated using pymatgen
data_Li7Mn12Cu5O32
_symmetry_space_group_name_H-M   'P 1'
_cell_length_a   8.30469019
_cell_length_b   8.30469019
_cell_length_c   8.30469019
_cell_angle_alpha   89.96493044
_cell_angle_beta   89.96493044
_cell_angle_gamma   89.96493044
_symmetry_Int_Tables_number   1
_chemical_formula_structural   Li7Mn12Cu5O32
_chemical_formula_sum   'Li7 Mn12 Cu5 O32'
_cell_volume   572.75654771
_cell_formula_units_Z   1
loop_
 _symmetry_equiv_pos_site_id
 _symmetry_equiv_pos_as_xyz
  1  'x, y, z'
loop_
 _atom_site_type_symbol
 _atom_site_label
 _atom_site_symmetry_multiplicity
 _atom_site_fract_x
 _atom_site_fract_y
 _atom_site_fract_z
 _atom_site_occupancy
  Li  Li0  1  0.001683  0.506504  0.997254  1
  Li  Li1  1  0.371414  0.631087  0.124543  1
  Li  Li2  1  0.874311  0.874311  0.874311  1
  Li  Li3  1  0.506504  0.997254  0.001683  1
  Li  Li4  1  0.997254  0.001683  0.506504  1
  Li  Li5  1  0.631087  0.124543  0.371414  1
  Li  Li6  1  0.124543  0.371414  0.631087  1
  Mn  Mn7  1  0.625007  0.628941  0.872196  1
  Mn  Mn8  1  0.872196  0.625007  0.628941  1
  Mn  Mn9  1  0.121907  0.632894  0.373513  1
  Mn  Mn10  1  0.628941  0.872196  0.625007  1
  Mn  Mn11  1  0.370933  0.879593  0.374675  1
  Mn  Mn12  1  0.125061  0.879792  0.129595  1
  Mn  Mn13  1  0.373513  0.121907  0.632894  1
  Mn  Mn14  1  0.129595  0.125061  0.879792  1
  Mn  Mn15  1  0.879792  0.129595  0.125061  1
  Mn  Mn16  1  0.374675  0.370933  0.879593  1
  Mn  Mn17  1  0.632894  0.373513  0.121907  1
  Mn  Mn18  1  0.879593  0.374675  0.370933  1
  Cu  Cu19  1  0.239848  0.746614  0.760733  1
  Cu  Cu20  1  0.746614  0.760733  0.239848  1
  Cu  Cu21  1  0.760733  0.239848  0.746614  1
  Cu  Cu22  1  0.257998  0.257998  0.257998  1
  Cu  Cu23  1  0.494123  0.494123  0.494123  1
  O  O24  1  0.389217  0.604938  0.869998  1
  O  O25  1  0.623561  0.612567  0.103840  1
  O  O26  1  0.884488  0.618701  0.384965  1
  O  O27  1  0.103840  0.623561  0.612567  1
  O  O28  1  0.853883  0.626134  0.851532  1
  O  O29  1  0.634273  0.634273  0.634273  1
  O  O30  1  0.352986  0.645246  0.378889  1
  O  O31  1  0.120729  0.653268  0.144216  1
  O  O32  1  0.626134  0.851532  0.853883  1
  O  O33  1  0.851532  0.853883  0.626134  1
  O  O34  1  0.135371  0.867767  0.365356  1
  O  O35  1  0.354692  0.881363  0.148513  1
  O  O36  1  0.604938  0.869998  0.389217  1
  O  O37  1  0.384965  0.884488  0.618701  1
  O  O38  1  0.124611  0.895564  0.897797  1
  O  O39  1  0.895564  0.897797  0.124611  1
  O  O40  1  0.612567  0.103840  0.623561  1
  O  O41  1  0.371171  0.113653  0.397202  1
  O  O42  1  0.115659  0.115659  0.115659  1
  O  O43  1  0.897797  0.124611  0.895564  1
  O  O44  1  0.144216  0.120729  0.653268  1
  O  O45  1  0.365356  0.135371  0.867767  1
  O  O46  1  0.653268  0.144216  0.120729  1
  O  O47  1  0.881363  0.148513  0.354692  1
  O  O48  1  0.378889  0.352986  0.645246  1
  O  O49  1  0.148513  0.354692  0.881363  1
  O  O50  1  0.867767  0.365356  0.135371  1
  O  O51  1  0.645246  0.378889  0.352986  1
  O  O52  1  0.397202  0.371171  0.113653  1
  O  O53  1  0.618701  0.384965  0.884488  1
  O  O54  1  0.869998  0.389217  0.604938  1
  O  O55  1  0.113653  0.397202  0.371171  1
