# generated using pymatgen
data_NaB3H4O7
_symmetry_space_group_name_H-M   'P 1'
_cell_length_a   10.48629583
_cell_length_b   10.48629583
_cell_length_c   6.44171630
_cell_angle_alpha   77.74859515
_cell_angle_beta   102.25140485
_cell_angle_gamma   123.52321054
_symmetry_Int_Tables_number   1
_chemical_formula_structural   NaB3H4O7
_chemical_formula_sum   'Na4 B12 H16 O28'
_cell_volume   573.13551221
_cell_formula_units_Z   4
loop_
 _symmetry_equiv_pos_site_id
 _symmetry_equiv_pos_as_xyz
  1  'x, y, z'
loop_
 _atom_site_type_symbol
 _atom_site_label
 _atom_site_symmetry_multiplicity
 _atom_site_fract_x
 _atom_site_fract_y
 _atom_site_fract_z
 _atom_site_occupancy
  Na  Na0  1  0.064464  0.410250  0.399484  1
  Na  Na1  1  0.410250  0.064464  0.100516  1
  Na  Na2  1  0.935536  0.589750  0.600516  1
  Na  Na3  1  0.589750  0.935536  0.899484  1
  B  B4  1  0.829705  0.511609  0.057383  1
  B  B5  1  0.511609  0.829705  0.442617  1
  B  B6  1  0.170295  0.488391  0.942617  1
  B  B7  1  0.488391  0.170295  0.557383  1
  B  B8  1  0.995837  0.801435  0.006162  1
  B  B9  1  0.801435  0.995837  0.493838  1
  B  B10  1  0.004163  0.198565  0.993838  1
  B  B11  1  0.198565  0.004163  0.506162  1
  B  B12  1  0.720160  0.676777  0.015735  1
  B  B13  1  0.676777  0.720160  0.484265  1
  B  B14  1  0.279840  0.323223  0.984265  1
  B  B15  1  0.323223  0.279840  0.515735  1
  H  H16  1  0.497831  0.615876  0.995956  1
  H  H17  1  0.615876  0.497831  0.504044  1
  H  H18  1  0.502169  0.384124  0.004044  1
  H  H19  1  0.384124  0.502169  0.495956  1
  H  H20  1  0.759591  0.366308  0.331567  1
  H  H21  1  0.366308  0.759591  0.168433  1
  H  H22  1  0.240409  0.633692  0.668433  1
  H  H23  1  0.633692  0.240409  0.831567  1
  H  H24  1  0.869959  0.370886  0.946867  1
  H  H25  1  0.370886  0.869959  0.553133  1
  H  H26  1  0.130041  0.629114  0.053133  1
  H  H27  1  0.629114  0.130041  0.446867  1
  H  H28  1  0.130695  0.028012  0.978151  1
  H  H29  1  0.028012  0.130695  0.521849  1
  H  H30  1  0.869305  0.971988  0.021849  1
  H  H31  1  0.971988  0.869305  0.478151  1
  O  O32  1  0.605757  0.705614  0.002752  1
  O  O33  1  0.705614  0.605757  0.497248  1
  O  O34  1  0.394243  0.294386  0.997248  1
  O  O35  1  0.294386  0.394243  0.502752  1
  O  O36  1  0.857341  0.458848  0.282536  1
  O  O37  1  0.458848  0.857341  0.217464  1
  O  O38  1  0.142659  0.541152  0.717464  1
  O  O39  1  0.541152  0.142659  0.782536  1
  O  O40  1  0.797917  0.407540  0.906117  1
  O  O41  1  0.407540  0.797917  0.593883  1
  O  O42  1  0.202083  0.592460  0.093883  1
  O  O43  1  0.592460  0.202083  0.406117  1
  O  O44  1  0.137054  0.935458  0.987810  1
  O  O45  1  0.935458  0.137054  0.512190  1
  O  O46  1  0.862946  0.064542  0.012190  1
  O  O47  1  0.064542  0.862946  0.487810  1
  O  O48  1  0.868760  0.810291  0.017551  1
  O  O49  1  0.810291  0.868760  0.482449  1
  O  O50  1  0.131240  0.189709  0.982449  1
  O  O51  1  0.189709  0.131240  0.517551  1
  O  O52  1  0.976872  0.662672  0.005639  1
  O  O53  1  0.662672  0.976872  0.494361  1
  O  O54  1  0.023128  0.337328  0.994361  1
  O  O55  1  0.337328  0.023128  0.505639  1
  O  O56  1  0.697073  0.535504  0.019446  1
  O  O57  1  0.535504  0.697073  0.480554  1
  O  O58  1  0.302927  0.464496  0.980554  1
  O  O59  1  0.464496  0.302927  0.519446  1
