# generated using pymatgen
data_LiNi2(CO4)2
_symmetry_space_group_name_H-M   'P 1'
_cell_length_a   6.40357392
_cell_length_b   8.54457303
_cell_length_c   11.39546153
_cell_angle_alpha   90.00000000
_cell_angle_beta   123.24160860
_cell_angle_gamma   90.00000000
_symmetry_Int_Tables_number   1
_chemical_formula_structural   LiNi2(CO4)2
_chemical_formula_sum   'Li4 Ni8 C8 O32'
_cell_volume   521.48439279
_cell_formula_units_Z   4
loop_
 _symmetry_equiv_pos_site_id
 _symmetry_equiv_pos_as_xyz
  1  'x, y, z'
loop_
 _atom_site_type_symbol
 _atom_site_label
 _atom_site_symmetry_multiplicity
 _atom_site_fract_x
 _atom_site_fract_y
 _atom_site_fract_z
 _atom_site_occupancy
  Li  Li0  1  0.472166  0.074341  0.832309  1
  Li  Li1  1  0.527834  0.574341  0.667691  1
  Li  Li2  1  0.472166  0.425659  0.332309  1
  Li  Li3  1  0.527834  0.925659  0.167691  1
  Ni  Ni4  1  0.487902  0.731581  0.908417  1
  Ni  Ni5  1  0.984995  0.729516  0.907367  1
  Ni  Ni6  1  0.512098  0.231581  0.591583  1
  Ni  Ni7  1  0.015005  0.229516  0.592633  1
  Ni  Ni8  1  0.984995  0.770484  0.407367  1
  Ni  Ni9  1  0.487902  0.768419  0.408417  1
  Ni  Ni10  1  0.015005  0.270484  0.092633  1
  Ni  Ni11  1  0.512098  0.268419  0.091583  1
  C  C12  1  0.482484  0.384135  0.836857  1
  C  C13  1  0.972172  0.375106  0.834008  1
  C  C14  1  0.517516  0.884135  0.663143  1
  C  C15  1  0.027828  0.875106  0.665992  1
  C  C16  1  0.972172  0.124894  0.334008  1
  C  C17  1  0.482484  0.115865  0.336857  1
  C  C18  1  0.027828  0.624894  0.165992  1
  C  C19  1  0.517516  0.615865  0.163143  1
  O  O20  1  0.915703  0.050715  0.991479  1
  O  O21  1  0.411949  0.055767  0.989268  1
  O  O22  1  0.633465  0.329970  0.963520  1
  O  O23  1  0.136866  0.323584  0.960072  1
  O  O24  1  0.416318  0.525407  0.808268  1
  O  O25  1  0.877230  0.511398  0.815022  1
  O  O26  1  0.392749  0.281786  0.732955  1
  O  O27  1  0.891280  0.281438  0.726291  1
  O  O28  1  0.607251  0.781786  0.767045  1
  O  O29  1  0.108720  0.781438  0.773709  1
  O  O30  1  0.583682  0.025407  0.691732  1
  O  O31  1  0.122770  0.011398  0.684978  1
  O  O32  1  0.366535  0.829970  0.536480  1
  O  O33  1  0.863134  0.823584  0.539928  1
  O  O34  1  0.588051  0.555767  0.510732  1
  O  O35  1  0.084297  0.550715  0.508521  1
  O  O36  1  0.411949  0.444233  0.489268  1
  O  O37  1  0.915703  0.449285  0.491479  1
  O  O38  1  0.136866  0.176416  0.460072  1
  O  O39  1  0.633465  0.170030  0.463520  1
  O  O40  1  0.877230  0.988602  0.315022  1
  O  O41  1  0.416318  0.974593  0.308268  1
  O  O42  1  0.891280  0.218562  0.226291  1
  O  O43  1  0.392749  0.218214  0.232955  1
  O  O44  1  0.108720  0.718562  0.273709  1
  O  O45  1  0.607251  0.718214  0.267045  1
  O  O46  1  0.122770  0.488602  0.184978  1
  O  O47  1  0.583682  0.474593  0.191732  1
  O  O48  1  0.863134  0.676416  0.039928  1
  O  O49  1  0.366535  0.670030  0.036480  1
  O  O50  1  0.588051  0.944233  0.010732  1
  O  O51  1  0.084297  0.949285  0.008521  1
