# generated using pymatgen
data_YHSO5
_symmetry_space_group_name_H-M   'P 1'
_cell_length_a   8.05027839
_cell_length_b   11.12690331
_cell_length_c   11.13695377
_cell_angle_alpha   90.00000000
_cell_angle_beta   132.34738792
_cell_angle_gamma   90.00000000
_symmetry_Int_Tables_number   1
_chemical_formula_structural   YHSO5
_chemical_formula_sum   'Y8 H8 S8 O40'
_cell_volume   737.29226581
_cell_formula_units_Z   8
loop_
 _symmetry_equiv_pos_site_id
 _symmetry_equiv_pos_as_xyz
  1  'x, y, z'
loop_
 _atom_site_type_symbol
 _atom_site_label
 _atom_site_symmetry_multiplicity
 _atom_site_fract_x
 _atom_site_fract_y
 _atom_site_fract_z
 _atom_site_occupancy
  Y  Y0  1  0.210192  0.435784  0.872666  1
  Y  Y1  1  0.210192  0.064216  0.372666  1
  Y  Y2  1  0.789808  0.564216  0.127334  1
  Y  Y3  1  0.789808  0.935784  0.627334  1
  Y  Y4  1  0.719823  0.423709  0.408085  1
  Y  Y5  1  0.719823  0.076291  0.908085  1
  Y  Y6  1  0.280177  0.576291  0.591915  1
  Y  Y7  1  0.280177  0.923709  0.091915  1
  H  H8  1  0.457587  0.586195  0.140395  1
  H  H9  1  0.457587  0.913805  0.640395  1
  H  H10  1  0.542413  0.413805  0.859605  1
  H  H11  1  0.542413  0.086195  0.359605  1
  H  H12  1  0.954088  0.611418  0.623068  1
  H  H13  1  0.954088  0.888582  0.123068  1
  H  H14  1  0.045912  0.388582  0.376932  1
  H  H15  1  0.045912  0.111418  0.876932  1
  S  S16  1  0.133234  0.329987  0.135183  1
  S  S17  1  0.133234  0.170013  0.635183  1
  S  S18  1  0.866766  0.670013  0.864817  1
  S  S19  1  0.866766  0.829987  0.364817  1
  S  S20  1  0.410748  0.690969  0.366703  1
  S  S21  1  0.410748  0.809031  0.866703  1
  S  S22  1  0.589252  0.309031  0.633297  1
  S  S23  1  0.589252  0.190969  0.133297  1
  O  O24  1  0.121643  0.330751  0.996848  1
  O  O25  1  0.121643  0.169249  0.496848  1
  O  O26  1  0.878357  0.669249  0.003152  1
  O  O27  1  0.878357  0.830751  0.503152  1
  O  O28  1  0.317744  0.738989  0.206986  1
  O  O29  1  0.317744  0.761011  0.706986  1
  O  O30  1  0.682256  0.261011  0.793014  1
  O  O31  1  0.682256  0.238989  0.293014  1
  O  O32  1  0.498139  0.791944  0.482536  1
  O  O33  1  0.498139  0.708056  0.982536  1
  O  O34  1  0.501861  0.208056  0.517464  1
  O  O35  1  0.501861  0.291944  0.017464  1
  O  O36  1  0.353743  0.374334  0.282626  1
  O  O37  1  0.353743  0.125666  0.782626  1
  O  O38  1  0.646257  0.625666  0.717374  1
  O  O39  1  0.646257  0.874334  0.217374  1
  O  O40  1  0.592126  0.604431  0.425760  1
  O  O41  1  0.592126  0.895569  0.925760  1
  O  O42  1  0.407874  0.395569  0.574240  1
  O  O43  1  0.407874  0.104431  0.074240  1
  O  O44  1  0.029865  0.539392  0.629768  1
  O  O45  1  0.029865  0.960608  0.129768  1
  O  O46  1  0.970135  0.460608  0.370232  1
  O  O47  1  0.970135  0.039392  0.870232  1
  O  O48  1  0.516768  0.508911  0.140951  1
  O  O49  1  0.516768  0.991089  0.640951  1
  O  O50  1  0.483232  0.491089  0.859049  1
  O  O51  1  0.483232  0.008911  0.359049  1
  O  O52  1  0.767698  0.371431  0.648101  1
  O  O53  1  0.767698  0.128569  0.148101  1
  O  O54  1  0.232302  0.628569  0.351899  1
  O  O55  1  0.232302  0.871431  0.851899  1
  O  O56  1  0.047659  0.595520  0.899181  1
  O  O57  1  0.047659  0.904480  0.399181  1
  O  O58  1  0.952341  0.404480  0.100819  1
  O  O59  1  0.952341  0.095520  0.600819  1
  O  O60  1  0.097356  0.298614  0.656565  1
  O  O61  1  0.097356  0.201386  0.156565  1
  O  O62  1  0.902644  0.701386  0.343435  1
  O  O63  1  0.902644  0.798614  0.843435  1
