# generated using pymatgen
data_LiMnF3
_symmetry_space_group_name_H-M   'P 1'
_cell_length_a   7.13011893
_cell_length_b   7.27453860
_cell_length_c   7.96669655
_cell_angle_alpha   95.14485216
_cell_angle_beta   103.13989699
_cell_angle_gamma   89.95698174
_symmetry_Int_Tables_number   1
_chemical_formula_structural   LiMnF3
_chemical_formula_sum   'Li6 Mn6 F18'
_cell_volume   400.69692973
_cell_formula_units_Z   6
loop_
 _symmetry_equiv_pos_site_id
 _symmetry_equiv_pos_as_xyz
  1  'x, y, z'
loop_
 _atom_site_type_symbol
 _atom_site_label
 _atom_site_symmetry_multiplicity
 _atom_site_fract_x
 _atom_site_fract_y
 _atom_site_fract_z
 _atom_site_occupancy
  Li  Li0  1  0.262793  0.451766  0.083222  1
  Li  Li1  1  0.588431  0.237883  0.324902  1
  Li  Li2  1  0.073715  0.245458  0.330241  1
  Li  Li3  1  0.926285  0.754542  0.669759  1
  Li  Li4  1  0.411569  0.762117  0.675098  1
  Li  Li5  1  0.737207  0.548234  0.916778  1
  Mn  Mn6  1  0.762094  0.041324  0.041201  1
  Mn  Mn7  1  0.237906  0.958676  0.958799  1
  Mn  Mn8  1  0.564060  0.737807  0.267366  1
  Mn  Mn9  1  0.077913  0.748801  0.289081  1
  Mn  Mn10  1  0.922087  0.251199  0.710919  1
  Mn  Mn11  1  0.435940  0.262193  0.732634  1
  F  F12  1  0.777100  0.749600  0.088651  1
  F  F13  1  0.266489  0.708355  0.077880  1
  F  F14  1  0.499263  0.007738  0.171045  1
  F  F15  1  0.512685  0.455413  0.226482  1
  F  F16  1  0.821764  0.188420  0.284444  1
  F  F17  1  0.098341  0.466985  0.238988  1
  F  F18  1  0.090245  0.009975  0.177619  1
  F  F19  1  0.848621  0.763599  0.428489  1
  F  F20  1  0.371815  0.781340  0.435643  1
  F  F21  1  0.628185  0.218660  0.564357  1
  F  F22  1  0.151379  0.236401  0.571511  1
  F  F23  1  0.909755  0.990025  0.822381  1
  F  F24  1  0.901659  0.533015  0.761012  1
  F  F25  1  0.178236  0.811580  0.715556  1
  F  F26  1  0.487315  0.544587  0.773518  1
  F  F27  1  0.500737  0.992262  0.828955  1
  F  F28  1  0.733511  0.291645  0.922120  1
  F  F29  1  0.222900  0.250400  0.911349  1
