# generated using pymatgen
data_Na2MnPCO7
_symmetry_space_group_name_H-M   'P 1'
_cell_length_a   5.24550230
_cell_length_b   8.98307974
_cell_length_c   13.36057443
_cell_angle_alpha   89.83229289
_cell_angle_beta   89.79391569
_cell_angle_gamma   88.41208437
_symmetry_Int_Tables_number   1
_chemical_formula_structural   Na2MnPCO7
_chemical_formula_sum   'Na8 Mn4 P4 C4 O28'
_cell_volume   629.31214358
_cell_formula_units_Z   4
loop_
 _symmetry_equiv_pos_site_id
 _symmetry_equiv_pos_as_xyz
  1  'x, y, z'
loop_
 _atom_site_type_symbol
 _atom_site_label
 _atom_site_symmetry_multiplicity
 _atom_site_fract_x
 _atom_site_fract_y
 _atom_site_fract_z
 _atom_site_occupancy
  Na  Na0  1  0.758957  0.749896  0.230562  1
  Na  Na1  1  0.755886  0.761641  0.505086  1
  Na  Na2  1  0.760110  0.750536  0.747609  1
  Na  Na3  1  0.241744  0.239957  0.254403  1
  Na  Na4  1  0.239890  0.238731  0.497824  1
  Na  Na5  1  0.248557  0.248196  0.749625  1
  Na  Na6  1  0.248970  0.251811  0.998543  1
  Na  Na7  1  0.771735  0.065003  0.888062  1
  Mn  Mn8  1  0.216035  0.648482  0.374503  1
  Mn  Mn9  1  0.223270  0.647019  0.879145  1
  Mn  Mn10  1  0.784280  0.352196  0.125792  1
  Mn  Mn11  1  0.772441  0.355940  0.625575  1
  P  P12  1  0.288171  0.576670  0.121496  1
  P  P13  1  0.292346  0.578722  0.629669  1
  P  P14  1  0.713757  0.425195  0.377436  1
  P  P15  1  0.700635  0.420484  0.872209  1
  C  C16  1  0.270632  0.919870  0.374187  1
  C  C17  1  0.280173  0.934390  0.871373  1
  C  C18  1  0.723768  0.074027  0.624782  1
  C  C19  1  0.731229  0.080804  0.126680  1
  O  O20  1  0.712144  0.944634  0.125774  1
  O  O21  1  0.737035  0.934248  0.628309  1
  O  O22  1  0.051388  0.850775  0.374650  1
  O  O23  1  0.071951  0.855332  0.874608  1
  O  O24  1  0.494497  0.865116  0.865835  1
  O  O25  1  0.466441  0.825331  0.373071  1
  O  O26  1  0.234878  0.665159  0.024716  1
  O  O27  1  0.213540  0.672046  0.212670  1
  O  O28  1  0.217457  0.673748  0.538408  1
  O  O29  1  0.226822  0.666201  0.727028  1
  O  O30  1  0.579535  0.534072  0.129098  1
  O  O31  1  0.593087  0.550001  0.627798  1
  O  O32  1  0.850240  0.577156  0.375757  1
  O  O33  1  0.840092  0.566754  0.868402  1
  O  O34  1  0.141515  0.427077  0.122256  1
  O  O35  1  0.163250  0.425629  0.628227  1
  O  O36  1  0.416254  0.458989  0.375683  1
  O  O37  1  0.401375  0.451187  0.876629  1
  O  O38  1  0.789840  0.328378  0.287549  1
  O  O39  1  0.778912  0.337143  0.474204  1
  O  O40  1  0.753574  0.320952  0.777715  1
  O  O41  1  0.773728  0.318283  0.961711  1
  O  O42  1  0.536595  0.178813  0.126980  1
  O  O43  1  0.516134  0.155190  0.622263  1
  O  O44  1  0.952239  0.150144  0.124347  1
  O  O45  1  0.935609  0.153170  0.625400  1
  O  O46  1  0.284755  0.058371  0.374961  1
  O  O47  1  0.254538  0.078089  0.875349  1
