# generated using pymatgen
data_K3Mo4H6O16F
_symmetry_space_group_name_H-M   'P 1'
_cell_length_a   8.12404701
_cell_length_b   10.60426603
_cell_length_c   10.71918703
_cell_angle_alpha   103.98709911
_cell_angle_beta   96.59668925
_cell_angle_gamma   106.42890101
_symmetry_Int_Tables_number   1
_chemical_formula_structural   K3Mo4H6O16F
_chemical_formula_sum   'K6 Mo8 H12 O32 F2'
_cell_volume   842.66590740
_cell_formula_units_Z   2
loop_
 _symmetry_equiv_pos_site_id
 _symmetry_equiv_pos_as_xyz
  1  'x, y, z'
loop_
 _atom_site_type_symbol
 _atom_site_label
 _atom_site_symmetry_multiplicity
 _atom_site_fract_x
 _atom_site_fract_y
 _atom_site_fract_z
 _atom_site_occupancy
  K  K0  1  0.819139  0.142422  0.469812  1
  K  K1  1  0.180861  0.857578  0.530188  1
  K  K2  1  0.680591  0.103223  0.831295  1
  K  K3  1  0.319409  0.896777  0.168705  1
  K  K4  1  0.916026  0.526871  0.178961  1
  K  K5  1  0.083974  0.473129  0.821039  1
  Mo  Mo6  1  0.274634  0.479328  0.488717  1
  Mo  Mo7  1  0.725366  0.520672  0.511283  1
  Mo  Mo8  1  0.143113  0.246092  0.177442  1
  Mo  Mo9  1  0.856887  0.753908  0.822558  1
  Mo  Mo10  1  0.605289  0.787548  0.496792  1
  Mo  Mo11  1  0.394711  0.212452  0.503208  1
  Mo  Mo12  1  0.405625  0.561358  0.206588  1
  Mo  Mo13  1  0.594375  0.438642  0.793412  1
  H  H14  1  0.088951  0.173504  0.699908  1
  H  H15  1  0.911049  0.826496  0.300092  1
  H  H16  1  0.048336  0.185103  0.839233  1
  H  H17  1  0.951664  0.814897  0.160767  1
  H  H18  1  0.701231  0.260544  0.085480  1
  H  H19  1  0.298769  0.739456  0.914520  1
  H  H20  1  0.521410  0.249770  0.125300  1
  H  H21  1  0.478590  0.750230  0.874700  1
  H  H22  1  0.312267  0.025362  0.894213  1
  H  H23  1  0.687733  0.974638  0.105787  1
  H  H24  1  0.370076  0.176521  0.892420  1
  H  H25  1  0.629924  0.823479  0.107580  1
  O  O26  1  0.094241  0.412398  0.553935  1
  O  O27  1  0.905759  0.587602  0.446065  1
  O  O28  1  0.997560  0.260918  0.050286  1
  O  O29  1  0.002440  0.739082  0.949714  1
  O  O30  1  0.175046  0.088915  0.118298  1
  O  O31  1  0.824954  0.911085  0.881702  1
  O  O32  1  0.791828  0.859855  0.436634  1
  O  O33  1  0.208172  0.140145  0.563366  1
  O  O34  1  0.563385  0.929776  0.591989  1
  O  O35  1  0.436615  0.070224  0.408011  1
  O  O36  1  0.603686  0.606130  0.154619  1
  O  O37  1  0.396314  0.393870  0.845381  1
  O  O38  1  0.250986  0.580621  0.089310  1
  O  O39  1  0.749014  0.419379  0.910690  1
  O  O40  1  0.341728  0.660288  0.559581  1
  O  O41  1  0.658272  0.339712  0.440419  1
  O  O42  1  0.361534  0.360895  0.150878  1
  O  O43  1  0.638466  0.639105  0.849122  1
  O  O44  1  0.427804  0.734092  0.336952  1
  O  O45  1  0.572196  0.265908  0.663048  1
  O  O46  1  0.290411  0.280767  0.376157  1
  O  O47  1  0.709589  0.719233  0.623843  1
  O  O48  1  0.188227  0.463939  0.309466  1
  O  O49  1  0.811773  0.536061  0.690534  1
  O  O50  1  0.543487  0.559805  0.403342  1
  O  O51  1  0.456513  0.440195  0.596658  1
  O  O52  1  0.003887  0.193738  0.754199  1
  O  O53  1  0.996113  0.806262  0.245801  1
  O  O54  1  0.596464  0.194778  0.095782  1
  O  O55  1  0.403536  0.805222  0.904218  1
  O  O56  1  0.327117  0.082219  0.834905  1
  O  O57  1  0.672883  0.917781  0.165095  1
  F  F58  1  0.955737  0.197379  0.273915  1
  F  F59  1  0.044263  0.802621  0.726085  1
