# generated using pymatgen
data_Ti3NbCo2(PO4)6
_symmetry_space_group_name_H-M   'P 1'
_cell_length_a   8.59385909
_cell_length_b   8.59385909
_cell_length_c   8.59385909
_cell_angle_alpha   61.29454542
_cell_angle_beta   61.29454542
_cell_angle_gamma   61.29454542
_symmetry_Int_Tables_number   1
_chemical_formula_structural   Ti3NbCo2(PO4)6
_chemical_formula_sum   'Ti3 Nb1 Co2 P6 O24'
_cell_volume   461.85707625
_cell_formula_units_Z   1
loop_
 _symmetry_equiv_pos_site_id
 _symmetry_equiv_pos_as_xyz
  1  'x, y, z'
loop_
 _atom_site_type_symbol
 _atom_site_label
 _atom_site_symmetry_multiplicity
 _atom_site_fract_x
 _atom_site_fract_y
 _atom_site_fract_z
 _atom_site_occupancy
  Ti  Ti0  1  0.859735  0.859735  0.859735  1
  Ti  Ti1  1  0.640174  0.640174  0.640174  1
  Ti  Ti2  1  0.358260  0.358260  0.358260  1
  Nb  Nb3  1  0.140269  0.140269  0.140269  1
  Co  Co4  1  0.994850  0.994850  0.994850  1
  Co  Co5  1  0.501739  0.501739  0.501739  1
  P  P6  1  0.957663  0.251213  0.545118  1
  P  P7  1  0.545118  0.957663  0.251213  1
  P  P8  1  0.744089  0.465015  0.040408  1
  P  P9  1  0.465015  0.040408  0.744089  1
  P  P10  1  0.040408  0.744089  0.465015  1
  P  P11  1  0.251213  0.545118  0.957663  1
  O  O12  1  0.880297  0.683636  0.504240  1
  O  O13  1  0.683636  0.504240  0.880297  1
  O  O14  1  0.942885  0.089259  0.735114  1
  O  O15  1  0.504240  0.880297  0.683636  1
  O  O16  1  0.995005  0.187125  0.386497  1
  O  O17  1  0.766236  0.411087  0.559103  1
  O  O18  1  0.735114  0.942885  0.089259  1
  O  O19  1  0.559103  0.766236  0.411087  1
  O  O20  1  0.810381  0.622147  0.999938  1
  O  O21  1  0.411087  0.559103  0.766236  1
  O  O22  1  0.905625  0.270681  0.055618  1
  O  O23  1  0.622147  0.999938  0.810381  1
  O  O24  1  0.386497  0.995005  0.187125  1
  O  O25  1  0.089259  0.735114  0.942885  1
  O  O26  1  0.585399  0.446853  0.233118  1
  O  O27  1  0.187125  0.386497  0.995005  1
  O  O28  1  0.446853  0.233118  0.585399  1
  O  O29  1  0.270681  0.055618  0.905625  1
  O  O30  1  0.233118  0.585399  0.446853  1
  O  O31  1  0.999938  0.810381  0.622147  1
  O  O32  1  0.499781  0.120099  0.311342  1
  O  O33  1  0.055618  0.905625  0.270681  1
  O  O34  1  0.311342  0.499781  0.120099  1
  O  O35  1  0.120099  0.311342  0.499781  1
