# generated using pymatgen
data_Li2CrFeO4
_symmetry_space_group_name_H-M   'P 1'
_cell_length_a   5.16426736
_cell_length_b   5.95235356
_cell_length_c   7.87088466
_cell_angle_alpha   79.12413074
_cell_angle_beta   77.32721045
_cell_angle_gamma   73.34249082
_symmetry_Int_Tables_number   1
_chemical_formula_structural   Li2CrFeO4
_chemical_formula_sum   'Li6 Cr3 Fe3 O12'
_cell_volume   224.08993467
_cell_formula_units_Z   3
loop_
 _symmetry_equiv_pos_site_id
 _symmetry_equiv_pos_as_xyz
  1  'x, y, z'
loop_
 _atom_site_type_symbol
 _atom_site_label
 _atom_site_symmetry_multiplicity
 _atom_site_fract_x
 _atom_site_fract_y
 _atom_site_fract_z
 _atom_site_occupancy
  Li  Li0  1  0.000000  0.000000  0.000000  1
  Li  Li1  1  0.001831  0.164631  0.333451  1
  Li  Li2  1  0.000000  0.500000  0.000000  1
  Li  Li3  1  0.001927  0.330762  0.667673  1
  Li  Li4  1  0.998073  0.669238  0.332327  1
  Li  Li5  1  0.998169  0.835369  0.666549  1
  Cr  Cr6  1  0.500000  0.000000  0.500000  1
  Cr  Cr7  1  0.499237  0.165370  0.833174  1
  Cr  Cr8  1  0.500763  0.834630  0.166826  1
  Fe  Fe9  1  0.499544  0.334715  0.166443  1
  Fe  Fe10  1  0.500000  0.500000  0.500000  1
  Fe  Fe11  1  0.500456  0.665285  0.833557  1
  O  O12  1  0.725580  0.006139  0.253434  1
  O  O13  1  0.273357  0.160371  0.080197  1
  O  O14  1  0.270862  0.327199  0.415011  1
  O  O15  1  0.725015  0.171773  0.586114  1
  O  O16  1  0.272507  0.663498  0.082259  1
  O  O17  1  0.729511  0.506585  0.250595  1
  O  O18  1  0.270489  0.493415  0.749405  1
  O  O19  1  0.727493  0.336502  0.917741  1
  O  O20  1  0.274985  0.828227  0.413886  1
  O  O21  1  0.729138  0.672801  0.584989  1
  O  O22  1  0.726643  0.839629  0.919803  1
  O  O23  1  0.274420  0.993861  0.746566  1
