# generated using pymatgen
data_VF4
_symmetry_space_group_name_H-M   'P 1'
_cell_length_a   5.61234983
_cell_length_b   9.05994090
_cell_length_c   10.88927343
_cell_angle_alpha   90.00000000
_cell_angle_beta   90.00000000
_cell_angle_gamma   90.00000000
_symmetry_Int_Tables_number   1
_chemical_formula_structural   VF4
_chemical_formula_sum   'V8 F32'
_cell_volume   553.69295980
_cell_formula_units_Z   8
loop_
 _symmetry_equiv_pos_site_id
 _symmetry_equiv_pos_as_xyz
  1  'x, y, z'
loop_
 _atom_site_type_symbol
 _atom_site_label
 _atom_site_symmetry_multiplicity
 _atom_site_fract_x
 _atom_site_fract_y
 _atom_site_fract_z
 _atom_site_occupancy
  V  V0  1  0.792143  0.100326  0.048929  1
  V  V1  1  0.313285  0.312094  0.201562  1
  V  V2  1  0.813285  0.812094  0.298438  1
  V  V3  1  0.292143  0.600326  0.451071  1
  V  V4  1  0.707857  0.100326  0.548929  1
  V  V5  1  0.186715  0.312094  0.701562  1
  V  V6  1  0.686715  0.812094  0.798438  1
  V  V7  1  0.207857  0.600326  0.951071  1
  F  F8  1  0.938659  0.505650  0.970044  1
  F  F9  1  0.342973  0.440257  0.049125  1
  F  F10  1  0.253031  0.724979  0.070983  1
  F  F11  1  0.457452  0.163262  0.098202  1
  F  F12  1  0.986135  0.250481  0.137264  1
  F  F13  1  0.751011  0.691162  0.176378  1
  F  F14  1  0.708706  0.984313  0.205174  1
  F  F15  1  0.103310  0.872655  0.264261  1
  F  F16  1  0.603310  0.372655  0.235739  1
  F  F17  1  0.208706  0.484313  0.294826  1
  F  F18  1  0.251011  0.191162  0.323622  1
  F  F19  1  0.486135  0.750481  0.362736  1
  F  F20  1  0.957452  0.663262  0.401798  1
  F  F21  1  0.753031  0.224979  0.429017  1
  F  F22  1  0.842973  0.940257  0.450875  1
  F  F23  1  0.438659  0.005650  0.529956  1
  F  F24  1  0.561341  0.505650  0.470044  1
  F  F25  1  0.157027  0.440257  0.549125  1
  F  F26  1  0.246969  0.724979  0.570983  1
  F  F27  1  0.042548  0.163262  0.598202  1
  F  F28  1  0.513865  0.250481  0.637264  1
  F  F29  1  0.748989  0.691162  0.676378  1
  F  F30  1  0.791294  0.984313  0.705174  1
  F  F31  1  0.396690  0.872655  0.764261  1
  F  F32  1  0.896690  0.372655  0.735739  1
  F  F33  1  0.291294  0.484313  0.794826  1
  F  F34  1  0.248989  0.191162  0.823622  1
  F  F35  1  0.013865  0.750481  0.862736  1
  F  F36  1  0.542548  0.663262  0.901798  1
  F  F37  1  0.746969  0.224979  0.929017  1
  F  F38  1  0.657027  0.940257  0.950875  1
  F  F39  1  0.061341  0.005650  0.029956  1
