# generated using pymatgen
data_Li2VOF4
_symmetry_space_group_name_H-M   'P 1'
_cell_length_a   6.74449182
_cell_length_b   3.73525920
_cell_length_c   14.70810437
_cell_angle_alpha   90.00000000
_cell_angle_beta   90.79933724
_cell_angle_gamma   90.00000000
_symmetry_Int_Tables_number   1
_chemical_formula_structural   Li2VOF4
_chemical_formula_sum   'Li8 V4 O4 F16'
_cell_volume   370.49675954
_cell_formula_units_Z   4
loop_
 _symmetry_equiv_pos_site_id
 _symmetry_equiv_pos_as_xyz
  1  'x, y, z'
loop_
 _atom_site_type_symbol
 _atom_site_label
 _atom_site_symmetry_multiplicity
 _atom_site_fract_x
 _atom_site_fract_y
 _atom_site_fract_z
 _atom_site_occupancy
  Li  Li0  1  0.056961  0.000000  0.128877  1
  Li  Li1  1  0.174613  0.000000  0.734192  1
  Li  Li2  1  0.323701  0.500000  0.229453  1
  Li  Li3  1  0.426543  0.500000  0.642592  1
  Li  Li4  1  0.564806  0.000000  0.367837  1
  Li  Li5  1  0.687501  0.000000  0.756862  1
  Li  Li6  1  0.811912  0.500000  0.255348  1
  Li  Li7  1  0.942819  0.500000  0.864735  1
  V  V8  1  0.108807  0.000000  0.427479  1
  V  V9  1  0.402459  0.500000  0.933178  1
  V  V10  1  0.597416  0.000000  0.067956  1
  V  V11  1  0.876805  0.500000  0.567959  1
  O  O12  1  0.069763  0.500000  0.451474  1
  O  O13  1  0.446520  0.000000  0.954178  1
  O  O14  1  0.551904  0.500000  0.049816  1
  O  O15  1  0.666988  0.500000  0.509202  1
  F  F16  1  0.056233  0.500000  0.187227  1
  F  F17  1  0.130599  0.500000  0.645488  1
  F  F18  1  0.154005  0.500000  0.983220  1
  F  F19  1  0.239284  0.000000  0.318728  1
  F  F20  1  0.256318  0.500000  0.821587  1
  F  F21  1  0.358421  0.000000  0.481368  1
  F  F22  1  0.365290  0.000000  0.143070  1
  F  F23  1  0.441807  0.000000  0.691569  1
  F  F24  1  0.552630  0.500000  0.306951  1
  F  F25  1  0.635626  0.500000  0.862404  1
  F  F26  1  0.744575  0.000000  0.181851  1
  F  F27  1  0.747757  0.500000  0.685632  1
  F  F28  1  0.846128  0.000000  0.019705  1
  F  F29  1  0.863374  0.000000  0.359176  1
  F  F30  1  0.954124  0.000000  0.558805  1
  F  F31  1  0.944312  0.000000  0.812083  1
