# generated using pymatgen
data_FeOF
_symmetry_space_group_name_H-M   'P 1'
_cell_length_a   9.59339097
_cell_length_b   3.09183512
_cell_length_c   14.26940974
_cell_angle_alpha   90.00000000
_cell_angle_beta   90.62845915
_cell_angle_gamma   90.00000000
_symmetry_Int_Tables_number   1
_chemical_formula_structural   FeOF
_chemical_formula_sum   'Fe12 O12 F12'
_cell_volume   423.22211460
_cell_formula_units_Z   12
loop_
 _symmetry_equiv_pos_site_id
 _symmetry_equiv_pos_as_xyz
  1  'x, y, z'
loop_
 _atom_site_type_symbol
 _atom_site_label
 _atom_site_symmetry_multiplicity
 _atom_site_fract_x
 _atom_site_fract_y
 _atom_site_fract_z
 _atom_site_occupancy
  Fe  Fe0  1  0.998442  0.000000  0.013821  1
  Fe  Fe1  1  0.500997  0.000000  0.006854  1
  Fe  Fe2  1  0.253247  0.500000  0.150269  1
  Fe  Fe3  1  0.780607  0.500000  0.172509  1
  Fe  Fe4  1  0.994389  0.000000  0.340690  1
  Fe  Fe5  1  0.499864  0.000000  0.342902  1
  Fe  Fe6  1  0.750070  0.500000  0.482458  1
  Fe  Fe7  1  0.251331  0.500000  0.478472  1
  Fe  Fe8  1  0.003934  0.000000  0.671007  1
  Fe  Fe9  1  0.498038  0.000000  0.679226  1
  Fe  Fe10  1  0.246013  0.500000  0.818838  1
  Fe  Fe11  1  0.716229  0.500000  0.841214  1
  O  O12  1  0.406374  0.500000  0.065408  1
  O  O13  1  0.901733  0.500000  0.062664  1
  O  O14  1  0.155690  0.000000  0.099678  1
  O  O15  1  0.855767  0.000000  0.235955  1
  O  O16  1  0.407088  0.500000  0.395107  1
  O  O17  1  0.908101  0.500000  0.402509  1
  O  O18  1  0.152192  0.000000  0.434215  1
  O  O19  1  0.653781  0.000000  0.435055  1
  O  O20  1  0.398733  0.500000  0.730966  1
  O  O21  1  0.144657  0.000000  0.763813  1
  O  O22  1  0.652931  0.000000  0.768501  1
  O  O23  1  0.591705  0.500000  0.941699  1
  F  F24  1  0.658711  0.000000  0.109656  1
  F  F25  1  0.352451  0.000000  0.230890  1
  F  F26  1  0.104301  0.500000  0.268752  1
  F  F27  1  0.597707  0.500000  0.267335  1
  F  F28  1  0.345218  0.000000  0.564188  1
  F  F29  1  0.850838  0.000000  0.571010  1
  F  F30  1  0.091184  0.500000  0.601211  1
  F  F31  1  0.595087  0.500000  0.602774  1
  F  F32  1  0.902452  0.500000  0.728681  1
  F  F33  1  0.335890  0.000000  0.894720  1
  F  F34  1  0.848419  0.000000  0.895768  1
  F  F35  1  0.095826  0.500000  0.931185  1
