# generated using pymatgen
data_Sr2RhO4
_symmetry_space_group_name_H-M   'P 1'
_cell_length_a   13.71693376
_cell_length_b   13.71693376
_cell_length_c   13.71693376
_cell_angle_alpha   156.89279575
_cell_angle_beta   156.89279575
_cell_angle_gamma   32.90796816
_symmetry_Int_Tables_number   1
_chemical_formula_structural   Sr2RhO4
_chemical_formula_sum   'Sr8 Rh4 O16'
_cell_volume   397.16078293
_cell_formula_units_Z   4
loop_
 _symmetry_equiv_pos_site_id
 _symmetry_equiv_pos_as_xyz
  1  'x, y, z'
loop_
 _atom_site_type_symbol
 _atom_site_label
 _atom_site_symmetry_multiplicity
 _atom_site_fract_x
 _atom_site_fract_y
 _atom_site_fract_z
 _atom_site_occupancy
  Sr  Sr0  1  0.175209  0.175209  0.000000  1
  Sr  Sr1  1  0.324791  0.324791  0.000000  1
  Sr  Sr2  1  0.074791  0.574791  0.500000  1
  Sr  Sr3  1  0.925209  0.425209  0.500000  1
  Sr  Sr4  1  0.824791  0.824791  0.000000  1
  Sr  Sr5  1  0.675209  0.675209  0.000000  1
  Sr  Sr6  1  0.574791  0.074791  0.500000  1
  Sr  Sr7  1  0.425209  0.925209  0.500000  1
  Rh  Rh8  1  1.000000  1.000000  0.000000  1
  Rh  Rh9  1  0.250000  0.750000  0.500000  1
  Rh  Rh10  1  0.750000  0.250000  0.500000  1
  Rh  Rh11  1  0.500000  0.500000  0.000000  1
  O  O12  1  0.943455  0.943455  0.386910  1
  O  O13  1  0.056545  0.443455  0.000000  1
  O  O14  1  0.080042  0.080042  0.000000  1
  O  O15  1  0.919958  0.919958  0.000000  1
  O  O16  1  0.330042  0.830042  0.500000  1
  O  O17  1  0.169958  0.669958  0.500000  1
  O  O18  1  0.443455  0.056545  0.000000  1
  O  O19  1  0.193455  0.693455  0.886910  1
  O  O20  1  0.306545  0.193455  0.500000  1
  O  O21  1  0.556545  0.556545  0.613090  1
  O  O22  1  0.669958  0.169958  0.500000  1
  O  O23  1  0.580042  0.580042  0.000000  1
  O  O24  1  0.419958  0.419958  0.000000  1
  O  O25  1  0.830042  0.330042  0.500000  1
  O  O26  1  0.693455  0.806545  0.500000  1
  O  O27  1  0.806545  0.306545  0.113090  1
