# generated using pymatgen
data_Na6P2H2O9
_symmetry_space_group_name_H-M   'P 1'
_cell_length_a   5.58354945
_cell_length_b   5.58354945
_cell_length_c   17.15030800
_cell_angle_alpha   78.94979371
_cell_angle_beta   101.05020629
_cell_angle_gamma   121.22869552
_symmetry_Int_Tables_number   1
_chemical_formula_structural   Na6P2H2O9
_chemical_formula_sum   'Na12 P4 H4 O18'
_cell_volume   446.00738682
_cell_formula_units_Z   2
loop_
 _symmetry_equiv_pos_site_id
 _symmetry_equiv_pos_as_xyz
  1  'x, y, z'
loop_
 _atom_site_type_symbol
 _atom_site_label
 _atom_site_symmetry_multiplicity
 _atom_site_fract_x
 _atom_site_fract_y
 _atom_site_fract_z
 _atom_site_occupancy
  Na  Na0  1  0.347973  0.710863  0.548011  1
  Na  Na1  1  0.710863  0.347973  0.951989  1
  Na  Na2  1  0.652027  0.289137  0.451989  1
  Na  Na3  1  0.289137  0.652027  0.048011  1
  Na  Na4  1  0.096512  0.098367  0.902880  1
  Na  Na5  1  0.098367  0.096512  0.597120  1
  Na  Na6  1  0.903488  0.901633  0.097120  1
  Na  Na7  1  0.901633  0.903488  0.402880  1
  Na  Na8  1  0.517452  0.817600  0.715307  1
  Na  Na9  1  0.817600  0.517452  0.784693  1
  Na  Na10  1  0.482548  0.182400  0.284693  1
  Na  Na11  1  0.182400  0.482548  0.215307  1
  P  P12  1  0.229542  0.543937  0.386798  1
  P  P13  1  0.543937  0.229542  0.113202  1
  P  P14  1  0.770458  0.456063  0.613202  1
  P  P15  1  0.456063  0.770458  0.886798  1
  H  H16  1  0.934476  0.769900  0.273400  1
  H  H17  1  0.769900  0.934476  0.226600  1
  H  H18  1  0.065524  0.230100  0.726600  1
  H  H19  1  0.230100  0.065524  0.773400  1
  O  O20  1  0.959233  0.959233  0.250000  1
  O  O21  1  0.040767  0.040767  0.750000  1
  O  O22  1  0.132130  0.335616  0.464344  1
  O  O23  1  0.335616  0.132130  0.035656  1
  O  O24  1  0.867870  0.664384  0.535656  1
  O  O25  1  0.664384  0.867870  0.964344  1
  O  O26  1  0.493371  0.557527  0.850950  1
  O  O27  1  0.557527  0.493371  0.649050  1
  O  O28  1  0.506629  0.442473  0.149050  1
  O  O29  1  0.442473  0.506629  0.350950  1
  O  O30  1  0.521251  0.037069  0.825139  1
  O  O31  1  0.037069  0.521251  0.674861  1
  O  O32  1  0.478749  0.962931  0.174861  1
  O  O33  1  0.962931  0.478749  0.325139  1
  O  O34  1  0.371671  0.854897  0.406723  1
  O  O35  1  0.854897  0.371671  0.093277  1
  O  O36  1  0.628329  0.145103  0.593277  1
  O  O37  1  0.145103  0.628329  0.906723  1
