# generated using pymatgen
data_Li2V2P2O9
_symmetry_space_group_name_H-M   'P 1'
_cell_length_a   5.67306285
_cell_length_b   8.45025200
_cell_length_c   14.53110142
_cell_angle_alpha   90.00000000
_cell_angle_beta   90.00000000
_cell_angle_gamma   90.00000000
_symmetry_Int_Tables_number   1
_chemical_formula_structural   Li2V2P2O9
_chemical_formula_sum   'Li8 V8 P8 O36'
_cell_volume   696.60372009
_cell_formula_units_Z   4
loop_
 _symmetry_equiv_pos_site_id
 _symmetry_equiv_pos_as_xyz
  1  'x, y, z'
loop_
 _atom_site_type_symbol
 _atom_site_label
 _atom_site_symmetry_multiplicity
 _atom_site_fract_x
 _atom_site_fract_y
 _atom_site_fract_z
 _atom_site_occupancy
  Li  Li0  1  0.750000  0.978370  0.738891  1
  Li  Li1  1  0.750000  0.980193  0.128675  1
  Li  Li2  1  0.250000  0.519807  0.628675  1
  Li  Li3  1  0.250000  0.521630  0.238891  1
  Li  Li4  1  0.750000  0.478370  0.761109  1
  Li  Li5  1  0.750000  0.480193  0.371325  1
  Li  Li6  1  0.250000  0.019807  0.871325  1
  Li  Li7  1  0.250000  0.021630  0.261109  1
  V  V8  1  0.000000  0.000000  0.500000  1
  V  V9  1  0.500000  0.000000  0.500000  1
  V  V10  1  0.750000  0.793029  0.936193  1
  V  V11  1  0.250000  0.706971  0.436193  1
  V  V12  1  0.000000  0.500000  0.000000  1
  V  V13  1  0.500000  0.500000  0.000000  1
  V  V14  1  0.750000  0.293029  0.563807  1
  V  V15  1  0.250000  0.206971  0.063807  1
  P  P16  1  0.250000  0.828541  0.070388  1
  P  P17  1  0.750000  0.792178  0.329971  1
  P  P18  1  0.250000  0.707822  0.829971  1
  P  P19  1  0.750000  0.671459  0.570388  1
  P  P20  1  0.250000  0.328541  0.429612  1
  P  P21  1  0.750000  0.292178  0.170029  1
  P  P22  1  0.250000  0.207822  0.670029  1
  P  P23  1  0.750000  0.171459  0.929612  1
  O  O24  1  0.750000  0.011774  0.983640  1
  O  O25  1  0.750000  0.934021  0.405627  1
  O  O26  1  0.250000  0.938956  0.413155  1
  O  O27  1  0.750000  0.868789  0.237599  1
  O  O28  1  0.250000  0.851002  0.172705  1
  O  O29  1  0.469574  0.817006  0.847871  1
  O  O30  1  0.030426  0.817006  0.847871  1
  O  O31  1  0.981007  0.762748  0.538166  1
  O  O32  1  0.518993  0.762748  0.538166  1
  O  O33  1  0.481007  0.737252  0.038166  1
  O  O34  1  0.018993  0.737252  0.038166  1
  O  O35  1  0.969574  0.682994  0.347871  1
  O  O36  1  0.530426  0.682994  0.347871  1
  O  O37  1  0.750000  0.648998  0.672705  1
  O  O38  1  0.250000  0.631211  0.737599  1
  O  O39  1  0.750000  0.561044  0.913155  1
  O  O40  1  0.250000  0.565979  0.905627  1
  O  O41  1  0.250000  0.488226  0.483640  1
  O  O42  1  0.750000  0.511774  0.516360  1
  O  O43  1  0.750000  0.434021  0.094373  1
  O  O44  1  0.250000  0.438956  0.086845  1
  O  O45  1  0.750000  0.368789  0.262401  1
  O  O46  1  0.250000  0.351002  0.327295  1
  O  O47  1  0.469574  0.317006  0.652129  1
  O  O48  1  0.030426  0.317006  0.652129  1
  O  O49  1  0.981007  0.262748  0.961834  1
  O  O50  1  0.518993  0.262748  0.961834  1
  O  O51  1  0.481007  0.237252  0.461834  1
  O  O52  1  0.018993  0.237252  0.461834  1
  O  O53  1  0.969574  0.182994  0.152129  1
  O  O54  1  0.530426  0.182994  0.152129  1
  O  O55  1  0.750000  0.148998  0.827295  1
  O  O56  1  0.250000  0.131211  0.762401  1
  O  O57  1  0.750000  0.061044  0.586845  1
  O  O58  1  0.250000  0.065979  0.594373  1
  O  O59  1  0.250000  0.988226  0.016360  1
