# generated using pymatgen
data_Zr2N2O
_symmetry_space_group_name_H-M   'P 1'
_cell_length_a   5.54073395
_cell_length_b   5.78298951
_cell_length_c   16.18152605
_cell_angle_alpha   90.04521331
_cell_angle_beta   89.99997072
_cell_angle_gamma   90.25049567
_symmetry_Int_Tables_number   1
_chemical_formula_structural   Zr2N2O
_chemical_formula_sum   'Zr16 N16 O8'
_cell_volume   518.48344289
_cell_formula_units_Z   8
loop_
 _symmetry_equiv_pos_site_id
 _symmetry_equiv_pos_as_xyz
  1  'x, y, z'
loop_
 _atom_site_type_symbol
 _atom_site_label
 _atom_site_symmetry_multiplicity
 _atom_site_fract_x
 _atom_site_fract_y
 _atom_site_fract_z
 _atom_site_occupancy
  Zr  Zr0  1  0.996390  0.795891  0.924426  1
  Zr  Zr1  1  0.987254  0.251448  0.812326  1
  Zr  Zr2  1  0.990699  0.704698  0.428173  1
  Zr  Zr3  1  0.994370  0.250348  0.314781  1
  Zr  Zr4  1  0.507847  0.748866  0.813732  1
  Zr  Zr5  1  0.504976  0.749670  0.314209  1
  Zr  Zr6  1  0.503141  0.205760  0.421587  1
  Zr  Zr7  1  0.504900  0.293712  0.925537  1
  Zr  Zr8  1  0.509343  0.794060  0.571718  1
  Zr  Zr9  1  0.525263  0.703935  0.069591  1
  Zr  Zr10  1  0.481762  0.234337  0.690360  1
  Zr  Zr11  1  0.499054  0.263093  0.186352  1
  Zr  Zr12  1  0.986909  0.292452  0.573853  1
  Zr  Zr13  1  0.002189  0.751912  0.683686  1
  Zr  Zr14  1  0.004746  0.759020  0.186178  1
  Zr  Zr15  1  0.975216  0.201981  0.069720  1
  N  N16  1  0.158034  0.893118  0.798602  1
  N  N17  1  0.153408  0.609169  0.297607  1
  N  N18  1  0.206201  0.025383  0.620828  1
  N  N19  1  0.344216  0.391047  0.798734  1
  N  N20  1  0.349393  0.110476  0.299436  1
  N  N21  1  0.650730  0.881545  0.700126  1
  N  N22  1  0.645928  0.625202  0.199667  1
  N  N23  1  0.632815  0.336403  0.052316  1
  N  N24  1  0.704348  0.022855  0.878767  1
  N  N25  1  0.704251  0.477210  0.377974  1
  N  N26  1  0.795848  0.521814  0.879291  1
  N  N27  1  0.796337  0.979758  0.380514  1
  N  N28  1  0.858411  0.662756  0.551360  1
  N  N29  1  0.867953  0.836819  0.051602  1
  N  N30  1  0.854204  0.124538  0.200626  1
  N  N31  1  0.847171  0.378020  0.699143  1
  O  O32  1  0.150643  0.168040  0.953259  1
  O  O33  1  0.152520  0.334433  0.453144  1
  O  O34  1  0.196308  0.474472  0.123372  1
  O  O35  1  0.307044  0.516382  0.620845  1
  O  O36  1  0.304724  0.973969  0.124734  1
  O  O37  1  0.351428  0.829171  0.451650  1
  O  O38  1  0.350479  0.668054  0.952197  1
  O  O39  1  0.643543  0.158182  0.547976  1
