# generated using pymatgen
data_Li(CoO2)2
_symmetry_space_group_name_H-M   'P 1'
_cell_length_a   4.86000537
_cell_length_b   5.62396092
_cell_length_c   10.10389631
_cell_angle_alpha   90.00000000
_cell_angle_beta   90.00000000
_cell_angle_gamma   90.00000000
_symmetry_Int_Tables_number   1
_chemical_formula_structural   Li(CoO2)2
_chemical_formula_sum   'Li4 Co8 O16'
_cell_volume   276.16454665
_cell_formula_units_Z   4
loop_
 _symmetry_equiv_pos_site_id
 _symmetry_equiv_pos_as_xyz
  1  'x, y, z'
loop_
 _atom_site_type_symbol
 _atom_site_label
 _atom_site_symmetry_multiplicity
 _atom_site_fract_x
 _atom_site_fract_y
 _atom_site_fract_z
 _atom_site_occupancy
  Li  Li0  1  0.520289  0.500000  0.000000  1
  Li  Li1  1  0.856705  0.500000  0.500000  1
  Li  Li2  1  0.143295  0.000000  0.000000  1
  Li  Li3  1  0.479711  0.000000  0.500000  1
  Co  Co4  1  0.503918  0.000000  0.755059  1
  Co  Co5  1  0.496082  0.500000  0.744941  1
  Co  Co6  1  0.503918  0.000000  0.244941  1
  Co  Co7  1  0.496082  0.500000  0.255059  1
  Co  Co8  1  0.000000  0.750000  0.750000  1
  Co  Co9  1  0.000000  0.750000  0.250000  1
  Co  Co10  1  0.000000  0.250000  0.750000  1
  Co  Co11  1  0.000000  0.250000  0.250000  1
  O  O12  1  0.670366  0.751521  0.350280  1
  O  O13  1  0.670366  0.751521  0.649720  1
  O  O14  1  0.670366  0.248479  0.350280  1
  O  O15  1  0.670366  0.248479  0.649720  1
  O  O16  1  0.846085  0.000000  0.849530  1
  O  O17  1  0.846085  0.000000  0.150470  1
  O  O18  1  0.825936  0.500000  0.844985  1
  O  O19  1  0.825936  0.500000  0.155015  1
  O  O20  1  0.174064  0.000000  0.344985  1
  O  O21  1  0.174064  0.000000  0.655015  1
  O  O22  1  0.153915  0.500000  0.349530  1
  O  O23  1  0.153915  0.500000  0.650470  1
  O  O24  1  0.329634  0.748479  0.149720  1
  O  O25  1  0.329634  0.251521  0.149720  1
  O  O26  1  0.329634  0.748479  0.850280  1
  O  O27  1  0.329634  0.251521  0.850280  1
