# generated using pymatgen
data_Li4Cr3GaO8
_symmetry_space_group_name_H-M   'P 1'
_cell_length_a   5.14017742
_cell_length_b   5.92843949
_cell_length_c   10.68745802
_cell_angle_alpha   73.90019516
_cell_angle_beta   76.11778950
_cell_angle_gamma   73.24077760
_symmetry_Int_Tables_number   1
_chemical_formula_structural   Li4Cr3GaO8
_chemical_formula_sum   'Li8 Cr6 Ga2 O16'
_cell_volume   295.05332221
_cell_formula_units_Z   2
loop_
 _symmetry_equiv_pos_site_id
 _symmetry_equiv_pos_as_xyz
  1  'x, y, z'
loop_
 _atom_site_type_symbol
 _atom_site_label
 _atom_site_symmetry_multiplicity
 _atom_site_fract_x
 _atom_site_fract_y
 _atom_site_fract_z
 _atom_site_occupancy
  Li  Li0  1  0.500427  0.312318  0.624929  1
  Li  Li1  1  0.499694  0.937737  0.874953  1
  Li  Li2  1  0.499573  0.687682  0.375071  1
  Li  Li3  1  0.500306  0.062263  0.125047  1
  Li  Li4  1  0.500042  0.812648  0.624898  1
  Li  Li5  1  0.500028  0.437266  0.875182  1
  Li  Li6  1  0.499958  0.187352  0.375102  1
  Li  Li7  1  0.499972  0.562734  0.124818  1
  Cr  Cr8  1  0.000016  0.125000  0.749974  1
  Cr  Cr9  1  0.000000  0.500000  0.500000  1
  Cr  Cr10  1  0.999984  0.875000  0.250026  1
  Cr  Cr11  1  0.999925  0.250225  0.000026  1
  Cr  Cr12  1  0.000000  0.000000  0.500000  1
  Cr  Cr13  1  0.000075  0.749775  0.999974  1
  Ga  Ga14  1  0.000044  0.624994  0.750013  1
  Ga  Ga15  1  0.999956  0.375006  0.249987  1
  O  O16  1  0.774378  0.713573  0.185479  1
  O  O17  1  0.225633  0.536009  0.314410  1
  O  O18  1  0.774367  0.463991  0.685590  1
  O  O19  1  0.225622  0.286427  0.814521  1
  O  O20  1  0.224117  0.911671  0.064755  1
  O  O21  1  0.775883  0.088329  0.935245  1
  O  O22  1  0.775690  0.838421  0.435438  1
  O  O23  1  0.225746  0.661246  0.564739  1
  O  O24  1  0.774335  0.213760  0.185562  1
  O  O25  1  0.225664  0.036681  0.314455  1
  O  O26  1  0.774336  0.963319  0.685545  1
  O  O27  1  0.225665  0.786240  0.814438  1
  O  O28  1  0.774156  0.588791  0.935449  1
  O  O29  1  0.774254  0.338754  0.435261  1
  O  O30  1  0.225844  0.411209  0.064551  1
  O  O31  1  0.224310  0.161579  0.564562  1
