# generated using pymatgen
data_Fe4O7F
_symmetry_space_group_name_H-M   'P 1'
_cell_length_a   7.19630624
_cell_length_b   7.19630624
_cell_length_c   5.51908115
_cell_angle_alpha   71.83725632
_cell_angle_beta   108.16274368
_cell_angle_gamma   99.89601002
_symmetry_Int_Tables_number   1
_chemical_formula_structural   Fe4O7F
_chemical_formula_sum   'Fe8 O14 F2'
_cell_volume   257.15905319
_cell_formula_units_Z   2
loop_
 _symmetry_equiv_pos_site_id
 _symmetry_equiv_pos_as_xyz
  1  'x, y, z'
loop_
 _atom_site_type_symbol
 _atom_site_label
 _atom_site_symmetry_multiplicity
 _atom_site_fract_x
 _atom_site_fract_y
 _atom_site_fract_z
 _atom_site_occupancy
  Fe  Fe0  1  0.759281  0.998725  0.503723  1
  Fe  Fe1  1  0.002083  0.758261  0.014197  1
  Fe  Fe2  1  0.742605  0.496316  0.479741  1
  Fe  Fe3  1  0.241739  0.997917  0.514197  1
  Fe  Fe4  1  0.500179  0.749988  0.000185  1
  Fe  Fe5  1  0.001275  0.240719  0.003723  1
  Fe  Fe6  1  0.250012  0.499821  0.500185  1
  Fe  Fe7  1  0.503684  0.257395  0.979741  1
  O  O8  1  0.825542  0.231962  0.653376  1
  O  O9  1  0.768038  0.174458  0.153376  1
  O  O10  1  0.735010  0.827256  0.851460  1
  O  O11  1  0.980165  0.574862  0.347224  1
  O  O12  1  0.670966  0.770431  0.340877  1
  O  O13  1  0.425138  0.019835  0.847224  1
  O  O14  1  0.085946  0.977713  0.171161  1
  O  O15  1  0.570912  0.481670  0.135128  1
  O  O16  1  0.329531  0.734771  0.655399  1
  O  O17  1  0.022287  0.914054  0.671161  1
  O  O18  1  0.518330  0.429088  0.635128  1
  O  O19  1  0.265229  0.670469  0.155399  1
  O  O20  1  0.229569  0.329034  0.840877  1
  O  O21  1  0.172744  0.264990  0.351460  1
  F  F22  1  0.477572  0.077836  0.347529  1
  F  F23  1  0.922164  0.522428  0.847529  1
