# generated using pymatgen
data_Li3Mn4P3H12O19
_symmetry_space_group_name_H-M   'P 1'
_cell_length_a   10.82621519
_cell_length_b   10.82621519
_cell_length_c   10.82621519
_cell_angle_alpha   60.26526971
_cell_angle_beta   60.26526971
_cell_angle_gamma   60.26526971
_symmetry_Int_Tables_number   1
_chemical_formula_structural   Li3Mn4P3H12O19
_chemical_formula_sum   'Li6 Mn8 P6 H24 O38'
_cell_volume   902.64037536
_cell_formula_units_Z   2
loop_
 _symmetry_equiv_pos_site_id
 _symmetry_equiv_pos_as_xyz
  1  'x, y, z'
loop_
 _atom_site_type_symbol
 _atom_site_label
 _atom_site_symmetry_multiplicity
 _atom_site_fract_x
 _atom_site_fract_y
 _atom_site_fract_z
 _atom_site_occupancy
  Li  Li0  1  0.930414  0.325774  0.062205  1
  Li  Li1  1  0.825774  0.430414  0.562205  1
  Li  Li2  1  0.325774  0.062205  0.930414  1
  Li  Li3  1  0.430414  0.562205  0.825774  1
  Li  Li4  1  0.562205  0.825774  0.430414  1
  Li  Li5  1  0.062205  0.930414  0.325774  1
  Mn  Mn6  1  0.993246  0.021188  0.694639  1
  Mn  Mn7  1  0.493246  0.194639  0.521188  1
  Mn  Mn8  1  0.521188  0.493246  0.194639  1
  Mn  Mn9  1  0.001195  0.001195  0.001195  1
  Mn  Mn10  1  0.501195  0.501195  0.501195  1
  Mn  Mn11  1  0.694639  0.993246  0.021188  1
  Mn  Mn12  1  0.194639  0.521188  0.493246  1
  Mn  Mn13  1  0.021188  0.694639  0.993246  1
  P  P14  1  0.699219  0.161279  0.193659  1
  P  P15  1  0.661279  0.199219  0.693659  1
  P  P16  1  0.693659  0.661279  0.199219  1
  P  P17  1  0.161279  0.193659  0.699219  1
  P  P18  1  0.193659  0.699219  0.161279  1
  P  P19  1  0.199219  0.693659  0.661279  1
  H  H20  1  0.996169  0.241850  0.309503  1
  H  H21  1  0.856779  0.193477  0.375615  1
  H  H22  1  0.972771  0.538461  0.776041  1
  H  H23  1  0.693477  0.356779  0.875615  1
  H  H24  1  0.276041  0.038461  0.472771  1
  H  H25  1  0.741850  0.496169  0.809503  1
  H  H26  1  0.875615  0.693477  0.356779  1
  H  H27  1  0.385280  0.113541  0.325938  1
  H  H28  1  0.825938  0.613541  0.885280  1
  H  H29  1  0.472771  0.276041  0.038461  1
  H  H30  1  0.809503  0.741850  0.496169  1
  H  H31  1  0.885280  0.825938  0.613541  1
  H  H32  1  0.325938  0.385280  0.113541  1
  H  H33  1  0.241850  0.309503  0.996169  1
  H  H34  1  0.776041  0.972771  0.538461  1
  H  H35  1  0.113541  0.325938  0.385280  1
  H  H36  1  0.613541  0.885280  0.825938  1
  H  H37  1  0.193477  0.375615  0.856779  1
  H  H38  1  0.538461  0.776041  0.972771  1
  H  H39  1  0.496169  0.809503  0.741850  1
  H  H40  1  0.038461  0.472771  0.276041  1
  H  H41  1  0.375615  0.856779  0.193477  1
  H  H42  1  0.356779  0.875615  0.693477  1
  H  H43  1  0.309503  0.996169  0.241850  1
  O  O44  1  0.852470  0.036902  0.201405  1
  O  O45  1  0.958056  0.182877  0.298420  1
  O  O46  1  0.814353  0.213772  0.653887  1
  O  O47  1  0.621428  0.072165  0.845336  1
  O  O48  1  0.677889  0.156046  0.565957  1
  O  O49  1  0.656046  0.177889  0.065957  1
  O  O50  1  0.572165  0.121428  0.345336  1
  O  O51  1  0.713772  0.314353  0.153887  1
  O  O52  1  0.869926  0.533977  0.842814  1
  O  O53  1  0.342814  0.033977  0.369926  1
  O  O54  1  0.845336  0.621428  0.072165  1
  O  O55  1  0.682877  0.458056  0.798420  1
  O  O56  1  0.314353  0.153887  0.713772  1
  O  O57  1  0.536902  0.352470  0.701405  1
  O  O58  1  0.701405  0.536902  0.352470  1
  O  O59  1  0.177889  0.065957  0.656046  1
  O  O60  1  0.798420  0.682877  0.458056  1
  O  O61  1  0.369926  0.342814  0.033977  1
  O  O62  1  0.924220  0.924220  0.924220  1
  O  O63  1  0.424220  0.424220  0.424220  1
  O  O64  1  0.842814  0.869926  0.533977  1
  O  O65  1  0.182877  0.298420  0.958056  1
  O  O66  1  0.565957  0.677889  0.156046  1
  O  O67  1  0.036902  0.201405  0.852470  1
  O  O68  1  0.653887  0.814353  0.213772  1
  O  O69  1  0.345336  0.572165  0.121428  1
  O  O70  1  0.121428  0.345336  0.572165  1
  O  O71  1  0.533977  0.842814  0.869926  1
  O  O72  1  0.033977  0.369926  0.342814  1
  O  O73  1  0.352470  0.701405  0.536902  1
  O  O74  1  0.458056  0.798420  0.682877  1
  O  O75  1  0.156046  0.565957  0.677889  1
  O  O76  1  0.213772  0.653887  0.814353  1
  O  O77  1  0.153887  0.713772  0.314353  1
  O  O78  1  0.065957  0.656046  0.177889  1
  O  O79  1  0.298420  0.958056  0.182877  1
  O  O80  1  0.201405  0.852470  0.036902  1
  O  O81  1  0.072165  0.845336  0.621428  1
