# generated using pymatgen
data_Na2Be2O3
_symmetry_space_group_name_H-M   'P 1'
_cell_length_a   4.94313863
_cell_length_b   5.31240796
_cell_length_c   5.36061406
_cell_angle_alpha   90.00000000
_cell_angle_beta   113.07589901
_cell_angle_gamma   90.00000000
_symmetry_Int_Tables_number   1
_chemical_formula_structural   Na2Be2O3
_chemical_formula_sum   'Na4 Be4 O6'
_cell_volume   129.50608700
_cell_formula_units_Z   2
loop_
 _symmetry_equiv_pos_site_id
 _symmetry_equiv_pos_as_xyz
  1  'x, y, z'
loop_
 _atom_site_type_symbol
 _atom_site_label
 _atom_site_symmetry_multiplicity
 _atom_site_fract_x
 _atom_site_fract_y
 _atom_site_fract_z
 _atom_site_occupancy
  Na  Na0  1  0.810291  0.371536  0.071992  1
  Na  Na1  1  0.810291  0.128464  0.571992  1
  Na  Na2  1  0.189709  0.871536  0.428008  1
  Na  Na3  1  0.189709  0.628464  0.928008  1
  Be  Be4  1  0.671033  0.603344  0.431083  1
  Be  Be5  1  0.328967  0.103344  0.068917  1
  Be  Be6  1  0.671033  0.896656  0.931083  1
  Be  Be7  1  0.328967  0.396656  0.568917  1
  O  O8  1  0.000000  0.500000  0.500000  1
  O  O9  1  0.000000  0.000000  0.000000  1
  O  O10  1  0.589924  0.854368  0.208532  1
  O  O11  1  0.410076  0.354368  0.291468  1
  O  O12  1  0.589924  0.645632  0.708532  1
  O  O13  1  0.410076  0.145632  0.791468  1
