# generated using pymatgen
data_Li3V(BO3)2
_symmetry_space_group_name_H-M   'P 1'
_cell_length_a   5.03412184
_cell_length_b   6.93879817
_cell_length_c   8.40481033
_cell_angle_alpha   112.07853333
_cell_angle_beta   90.13814735
_cell_angle_gamma   91.26321787
_symmetry_Int_Tables_number   1
_chemical_formula_structural   Li3V(BO3)2
_chemical_formula_sum   'Li6 V2 B4 O12'
_cell_volume   271.97329357
_cell_formula_units_Z   2
loop_
 _symmetry_equiv_pos_site_id
 _symmetry_equiv_pos_as_xyz
  1  'x, y, z'
loop_
 _atom_site_type_symbol
 _atom_site_label
 _atom_site_symmetry_multiplicity
 _atom_site_fract_x
 _atom_site_fract_y
 _atom_site_fract_z
 _atom_site_occupancy
  Li  Li0  1  0.887497  0.262472  0.821299  1
  Li  Li1  1  0.662636  0.408914  0.565141  1
  Li  Li2  1  0.844350  0.433595  0.269464  1
  Li  Li3  1  0.155650  0.566405  0.730536  1
  Li  Li4  1  0.337364  0.591086  0.434859  1
  Li  Li5  1  0.112503  0.737528  0.178701  1
  V  V6  1  0.609037  0.032208  0.210154  1
  V  V7  1  0.390963  0.967792  0.789846  1
  B  B8  1  0.144363  0.188633  0.408604  1
  B  B9  1  0.671678  0.675830  0.923731  1
  B  B10  1  0.328322  0.324170  0.076269  1
  B  B11  1  0.855637  0.811367  0.591396  1
  O  O12  1  0.729848  0.994136  0.695823  1
  O  O13  1  0.223455  0.229720  0.910019  1
  O  O14  1  0.870483  0.198497  0.382828  1
  O  O15  1  0.281987  0.352728  0.523984  1
  O  O16  1  0.795380  0.518320  0.801151  1
  O  O17  1  0.570710  0.240481  0.104469  1
  O  O18  1  0.429290  0.759519  0.895531  1
  O  O19  1  0.204620  0.481680  0.198849  1
  O  O20  1  0.718013  0.647272  0.476016  1
  O  O21  1  0.129517  0.801503  0.617172  1
  O  O22  1  0.776545  0.770280  0.089981  1
  O  O23  1  0.270152  0.005864  0.304177  1
