# generated using pymatgen
data_FePO4
_symmetry_space_group_name_H-M   'P 1'
_cell_length_a   5.25792678
_cell_length_b   10.49857678
_cell_length_c   14.26928720
_cell_angle_alpha   90.00000000
_cell_angle_beta   90.00000000
_cell_angle_gamma   90.00000000
_symmetry_Int_Tables_number   1
_chemical_formula_structural   FePO4
_chemical_formula_sum   'Fe8 P8 O32'
_cell_volume   787.67532692
_cell_formula_units_Z   8
loop_
 _symmetry_equiv_pos_site_id
 _symmetry_equiv_pos_as_xyz
  1  'x, y, z'
loop_
 _atom_site_type_symbol
 _atom_site_label
 _atom_site_symmetry_multiplicity
 _atom_site_fract_x
 _atom_site_fract_y
 _atom_site_fract_z
 _atom_site_occupancy
  Fe  Fe0  1  0.928872  0.032515  0.497058  1
  Fe  Fe1  1  0.550194  0.216773  0.249482  1
  Fe  Fe2  1  0.550194  0.283227  0.749482  1
  Fe  Fe3  1  0.928872  0.467485  0.997058  1
  Fe  Fe4  1  0.071128  0.532515  0.497058  1
  Fe  Fe5  1  0.449806  0.716773  0.249482  1
  Fe  Fe6  1  0.449806  0.783227  0.749482  1
  Fe  Fe7  1  0.071128  0.967485  0.997058  1
  P  P8  1  0.431209  0.034692  0.624295  1
  P  P9  1  0.050885  0.219051  0.871953  1
  P  P10  1  0.050885  0.280949  0.371953  1
  P  P11  1  0.431209  0.465308  0.124295  1
  P  P12  1  0.568791  0.534692  0.624295  1
  P  P13  1  0.949115  0.719051  0.871953  1
  P  P14  1  0.949115  0.780949  0.371953  1
  P  P15  1  0.568791  0.965308  0.124295  1
  O  O16  1  0.148652  0.010460  0.600281  1
  O  O17  1  0.497928  0.045826  0.211303  1
  O  O18  1  0.405301  0.002524  0.038203  1
  O  O19  1  0.010020  0.075802  0.893520  1
  O  O20  1  0.477343  0.177153  0.646441  1
  O  O21  1  0.893203  0.242698  0.285023  1
  O  O22  1  0.967424  0.203595  0.459107  1
  O  O23  1  0.335444  0.244980  0.851643  1
  O  O24  1  0.335444  0.255020  0.351643  1
  O  O25  1  0.967424  0.296405  0.959107  1
  O  O26  1  0.893203  0.257302  0.785023  1
  O  O27  1  0.477343  0.322847  0.146441  1
  O  O28  1  0.010020  0.424198  0.393520  1
  O  O29  1  0.405301  0.497476  0.538203  1
  O  O30  1  0.497928  0.454174  0.711303  1
  O  O31  1  0.148652  0.489540  0.100281  1
  O  O32  1  0.851348  0.510460  0.600281  1
  O  O33  1  0.502072  0.545826  0.211303  1
  O  O34  1  0.594699  0.502524  0.038203  1
  O  O35  1  0.989980  0.575802  0.893520  1
  O  O36  1  0.522657  0.677153  0.646441  1
  O  O37  1  0.106797  0.742698  0.285023  1
  O  O38  1  0.032576  0.703595  0.459107  1
  O  O39  1  0.664556  0.744980  0.851643  1
  O  O40  1  0.664556  0.755020  0.351643  1
  O  O41  1  0.032576  0.796405  0.959107  1
  O  O42  1  0.106797  0.757302  0.785023  1
  O  O43  1  0.522657  0.822847  0.146441  1
  O  O44  1  0.989980  0.924198  0.393520  1
  O  O45  1  0.594699  0.997476  0.538203  1
  O  O46  1  0.502072  0.954174  0.711303  1
  O  O47  1  0.851348  0.989540  0.100281  1
