# generated using pymatgen
data_Li3Sn3(PO4)4
_symmetry_space_group_name_H-M   'P 1'
_cell_length_a   6.45693494
_cell_length_b   12.38892209
_cell_length_c   8.94404357
_cell_angle_alpha   90.00000000
_cell_angle_beta   103.54183344
_cell_angle_gamma   90.00000000
_symmetry_Int_Tables_number   1
_chemical_formula_structural   Li3Sn3(PO4)4
_chemical_formula_sum   'Li6 Sn6 P8 O32'
_cell_volume   695.58323231
_cell_formula_units_Z   2
loop_
 _symmetry_equiv_pos_site_id
 _symmetry_equiv_pos_as_xyz
  1  'x, y, z'
loop_
 _atom_site_type_symbol
 _atom_site_label
 _atom_site_symmetry_multiplicity
 _atom_site_fract_x
 _atom_site_fract_y
 _atom_site_fract_z
 _atom_site_occupancy
  Li  Li0  1  0.653709  0.577443  0.909649  1
  Li  Li1  1  0.160476  0.900977  0.916535  1
  Li  Li2  1  0.120820  0.212543  0.657649  1
  Li  Li3  1  0.879180  0.712543  0.342351  1
  Li  Li4  1  0.346291  0.077443  0.090351  1
  Li  Li5  1  0.839524  0.400977  0.083465  1
  Sn  Sn6  1  0.602461  0.929292  0.735383  1
  Sn  Sn7  1  0.088040  0.585061  0.717668  1
  Sn  Sn8  1  0.635708  0.312230  0.677867  1
  Sn  Sn9  1  0.364292  0.812230  0.322133  1
  Sn  Sn10  1  0.397539  0.429292  0.264617  1
  Sn  Sn11  1  0.911960  0.085061  0.282332  1
  P  P12  1  0.360659  0.367745  0.911746  1
  P  P13  1  0.882143  0.125020  0.920403  1
  P  P14  1  0.548664  0.597427  0.584330  1
  P  P15  1  0.054032  0.908731  0.598006  1
  P  P16  1  0.451336  0.097427  0.415670  1
  P  P17  1  0.945968  0.408731  0.401994  1
  P  P18  1  0.639341  0.867745  0.088254  1
  P  P19  1  0.117857  0.625020  0.079597  1
  O  O20  1  0.571330  0.429505  0.930389  1
  O  O21  1  0.668481  0.828864  0.925498  1
  O  O22  1  0.073125  0.050069  0.948771  1
  O  O23  1  0.145893  0.683305  0.930873  1
  O  O24  1  0.662176  0.064458  0.858157  1
  O  O25  1  0.369232  0.266571  0.811826  1
  O  O26  1  0.164092  0.438726  0.835289  1
  O  O27  1  0.398593  0.623961  0.693471  1
  O  O28  1  0.279088  0.908847  0.720280  1
  O  O29  1  0.899695  0.209628  0.795336  1
  O  O30  1  0.900959  0.883646  0.709943  1
  O  O31  1  0.755029  0.568757  0.708557  1
  O  O32  1  0.417083  0.192131  0.516299  1
  O  O33  1  0.464792  0.494714  0.486166  1
  O  O34  1  0.954425  0.317338  0.516202  1
  O  O35  1  0.535208  0.994714  0.513834  1
  O  O36  1  0.011409  0.023010  0.529171  1
  O  O37  1  0.582917  0.692131  0.483701  1
  O  O38  1  0.988591  0.523010  0.470829  1
  O  O39  1  0.045575  0.817338  0.483798  1
  O  O40  1  0.720912  0.408847  0.279720  1
  O  O41  1  0.601407  0.123961  0.306529  1
  O  O42  1  0.630768  0.766571  0.188174  1
  O  O43  1  0.244971  0.068757  0.291443  1
  O  O44  1  0.099041  0.383646  0.290057  1
  O  O45  1  0.337824  0.564458  0.141843  1
  O  O46  1  0.100305  0.709628  0.204664  1
  O  O47  1  0.835908  0.938726  0.164711  1
  O  O48  1  0.331519  0.328864  0.074502  1
  O  O49  1  0.428670  0.929505  0.069611  1
  O  O50  1  0.854107  0.183305  0.069127  1
  O  O51  1  0.926875  0.550069  0.051229  1
