# generated using pymatgen
data_Li4CoO4
_symmetry_space_group_name_H-M   'P 1'
_cell_length_a   9.05914386
_cell_length_b   9.50135896
_cell_length_c   9.32828459
_cell_angle_alpha   90.00000000
_cell_angle_beta   90.89417392
_cell_angle_gamma   90.00000000
_symmetry_Int_Tables_number   1
_chemical_formula_structural   Li4CoO4
_chemical_formula_sum   'Li32 Co8 O32'
_cell_volume   802.82664876
_cell_formula_units_Z   8
loop_
 _symmetry_equiv_pos_site_id
 _symmetry_equiv_pos_as_xyz
  1  'x, y, z'
loop_
 _atom_site_type_symbol
 _atom_site_label
 _atom_site_symmetry_multiplicity
 _atom_site_fract_x
 _atom_site_fract_y
 _atom_site_fract_z
 _atom_site_occupancy
  Li  Li0  1  0.151466  0.134123  0.387375  1
  Li  Li1  1  0.151466  0.865877  0.887375  1
  Li  Li2  1  0.298522  0.380920  0.909585  1
  Li  Li3  1  0.298522  0.619080  0.409585  1
  Li  Li4  1  0.351883  0.885594  0.107902  1
  Li  Li5  1  0.351883  0.114406  0.607902  1
  Li  Li6  1  0.360670  0.102463  0.870013  1
  Li  Li7  1  0.360670  0.897537  0.370013  1
  Li  Li8  1  0.371610  0.351073  0.329012  1
  Li  Li9  1  0.371610  0.648927  0.829012  1
  Li  Li10  1  0.401587  0.141579  0.139287  1
  Li  Li11  1  0.401587  0.858421  0.639287  1
  Li  Li12  1  0.589666  0.633404  0.358656  1
  Li  Li13  1  0.589666  0.366596  0.858656  1
  Li  Li14  1  0.622878  0.140599  0.662383  1
  Li  Li15  1  0.622878  0.859401  0.162383  1
  Li  Li16  1  0.618407  0.601793  0.629071  1
  Li  Li17  1  0.618407  0.398207  0.129071  1
  Li  Li18  1  0.649661  0.631876  0.899741  1
  Li  Li19  1  0.649661  0.368124  0.399741  1
  Li  Li20  1  0.668200  0.129499  0.110387  1
  Li  Li21  1  0.668200  0.870501  0.610387  1
  Li  Li22  1  0.863023  0.641214  0.098179  1
  Li  Li23  1  0.863023  0.358786  0.598179  1
  Li  Li24  1  0.870270  0.877531  0.401670  1
  Li  Li25  1  0.870270  0.122469  0.901670  1
  Li  Li26  1  0.889663  0.100147  0.637361  1
  Li  Li27  1  0.889663  0.899853  0.137361  1
  Li  Li28  1  0.915663  0.629802  0.664683  1
  Li  Li29  1  0.915663  0.370198  0.164683  1
  Li  Li30  1  0.885938  0.130693  0.364031  1
  Li  Li31  1  0.885938  0.869307  0.864031  1
  Co  Co32  1  0.125904  0.109239  0.109505  1
  Co  Co33  1  0.125904  0.890761  0.609505  1
  Co  Co34  1  0.376228  0.618940  0.112782  1
  Co  Co35  1  0.376228  0.381060  0.612782  1
  Co  Co36  1  0.611570  0.101709  0.384281  1
  Co  Co37  1  0.611570  0.898291  0.884281  1
  Co  Co38  1  0.870837  0.610436  0.379672  1
  Co  Co39  1  0.870837  0.389564  0.879672  1
  O  O40  1  0.010884  0.007654  0.498656  1
  O  O41  1  0.010884  0.992346  0.998656  1
  O  O42  1  0.017123  0.208740  0.231093  1
  O  O43  1  0.017123  0.791260  0.731093  1
  O  O44  1  0.252385  0.211136  0.006761  1
  O  O45  1  0.252385  0.788864  0.506761  1
  O  O46  1  0.257473  0.021008  0.232308  1
  O  O47  1  0.257473  0.978992  0.732308  1
  O  O48  1  0.287134  0.508054  0.229353  1
  O  O49  1  0.287134  0.491946  0.729353  1
  O  O50  1  0.280225  0.733620  0.992932  1
  O  O51  1  0.280225  0.266380  0.492932  1
  O  O52  1  0.461940  0.747928  0.238938  1
  O  O53  1  0.461940  0.252072  0.738938  1
  O  O54  1  0.491462  0.489415  0.492353  1
  O  O55  1  0.491462  0.510585  0.992353  1
  O  O56  1  0.510843  0.002327  0.014182  1
  O  O57  1  0.510843  0.997673  0.514182  1
  O  O58  1  0.544373  0.240563  0.256345  1
  O  O59  1  0.544373  0.759437  0.756345  1
  O  O60  1  0.744950  0.211584  0.502908  1
  O  O61  1  0.744950  0.788416  0.002908  1
  O  O62  1  0.743745  0.998594  0.267573  1
  O  O63  1  0.743745  0.001406  0.767573  1
  O  O64  1  0.753581  0.500868  0.263691  1
  O  O65  1  0.753581  0.499132  0.763691  1
  O  O66  1  0.750007  0.715809  0.495491  1
  O  O67  1  0.750007  0.284191  0.995491  1
  O  O68  1  0.942420  0.738685  0.264936  1
  O  O69  1  0.942420  0.261315  0.764936  1
  O  O70  1  0.964805  0.493484  0.000378  1
  O  O71  1  0.964805  0.506516  0.500378  1
