# generated using pymatgen
data_LiCu2(PO3)5
_symmetry_space_group_name_H-M   'P 1'
_cell_length_a   5.62101247
_cell_length_b   8.92785738
_cell_length_c   13.36082984
_cell_angle_alpha   90.00000000
_cell_angle_beta   114.35468555
_cell_angle_gamma   90.00000000
_symmetry_Int_Tables_number   1
_chemical_formula_structural   LiCu2(PO3)5
_chemical_formula_sum   'Li2 Cu4 P10 O30'
_cell_volume   610.82726644
_cell_formula_units_Z   2
loop_
 _symmetry_equiv_pos_site_id
 _symmetry_equiv_pos_as_xyz
  1  'x, y, z'
loop_
 _atom_site_type_symbol
 _atom_site_label
 _atom_site_symmetry_multiplicity
 _atom_site_fract_x
 _atom_site_fract_y
 _atom_site_fract_z
 _atom_site_occupancy
  Li  Li0  1  0.094322  0.989169  0.537493  1
  Li  Li1  1  0.094322  0.010831  0.037493  1
  Cu  Cu2  1  0.138974  0.302786  0.930950  1
  Cu  Cu3  1  0.869540  0.296076  0.563137  1
  Cu  Cu4  1  0.138974  0.697214  0.430950  1
  Cu  Cu5  1  0.869540  0.703924  0.063137  1
  P  P6  1  0.321794  0.825082  0.914593  1
  P  P7  1  0.458792  0.532790  0.855736  1
  P  P8  1  0.002366  0.052144  0.750234  1
  P  P9  1  0.541523  0.532024  0.642270  1
  P  P10  1  0.673479  0.830060  0.586952  1
  P  P11  1  0.321794  0.174918  0.414593  1
  P  P12  1  0.458792  0.467210  0.355736  1
  P  P13  1  0.002366  0.947856  0.250234  1
  P  P14  1  0.541523  0.467976  0.142270  1
  P  P15  1  0.673479  0.169940  0.086952  1
  O  O16  1  0.145019  0.836295  0.972140  1
  O  O17  1  0.611521  0.850647  0.972798  1
  O  O18  1  0.720779  0.543957  0.954514  1
  O  O19  1  0.263665  0.662815  0.856481  1
  O  O20  1  0.941039  0.145197  0.830670  1
  O  O21  1  0.312276  0.387322  0.836056  1
  O  O22  1  0.239057  0.938017  0.809771  1
  O  O23  1  0.495376  0.579940  0.748157  1
  O  O24  1  0.759351  0.940831  0.692855  1
  O  O25  1  0.691079  0.388801  0.662493  1
  O  O26  1  0.068671  0.131914  0.664326  1
  O  O27  1  0.730978  0.666009  0.642090  1
  O  O28  1  0.279458  0.542404  0.542926  1
  O  O29  1  0.381157  0.854250  0.531910  1
  O  O30  1  0.844385  0.843001  0.527048  1
  O  O31  1  0.145019  0.163705  0.472140  1
  O  O32  1  0.611521  0.149353  0.472798  1
  O  O33  1  0.720779  0.456043  0.454514  1
  O  O34  1  0.263665  0.337185  0.356481  1
  O  O35  1  0.941039  0.854803  0.330670  1
  O  O36  1  0.312276  0.612678  0.336056  1
  O  O37  1  0.239057  0.061983  0.309771  1
  O  O38  1  0.495376  0.420060  0.248157  1
  O  O39  1  0.759351  0.059169  0.192855  1
  O  O40  1  0.691079  0.611199  0.162493  1
  O  O41  1  0.068671  0.868086  0.164326  1
  O  O42  1  0.730978  0.333991  0.142090  1
  O  O43  1  0.279458  0.457596  0.042926  1
  O  O44  1  0.381157  0.145750  0.031910  1
  O  O45  1  0.844385  0.156999  0.027048  1
