# generated using pymatgen
data_Li2Fe3(BO3)3
_symmetry_space_group_name_H-M   'P 1'
_cell_length_a   8.16184047
_cell_length_b   6.11816753
_cell_length_c   8.21393474
_cell_angle_alpha   90.00000000
_cell_angle_beta   119.74731783
_cell_angle_gamma   90.00000000
_symmetry_Int_Tables_number   1
_chemical_formula_structural   Li2Fe3(BO3)3
_chemical_formula_sum   'Li4 Fe6 B6 O18'
_cell_volume   356.11602932
_cell_formula_units_Z   2
loop_
 _symmetry_equiv_pos_site_id
 _symmetry_equiv_pos_as_xyz
  1  'x, y, z'
loop_
 _atom_site_type_symbol
 _atom_site_label
 _atom_site_symmetry_multiplicity
 _atom_site_fract_x
 _atom_site_fract_y
 _atom_site_fract_z
 _atom_site_occupancy
  Li  Li0  1  0.723994  0.000000  0.688070  1
  Li  Li1  1  0.989494  0.500000  0.288162  1
  Li  Li2  1  0.292789  0.000000  0.021207  1
  Li  Li3  1  0.296592  0.500000  0.024275  1
  Fe  Fe4  1  0.640045  0.251327  0.989090  1
  Fe  Fe5  1  0.640045  0.748673  0.989090  1
  Fe  Fe6  1  0.364117  0.748539  0.382450  1
  Fe  Fe7  1  0.364117  0.251461  0.382450  1
  Fe  Fe8  1  0.004621  0.248582  0.630075  1
  Fe  Fe9  1  0.004621  0.751418  0.630075  1
  B  B10  1  0.326167  0.500000  0.673013  1
  B  B11  1  0.334715  0.000000  0.672295  1
  B  B12  1  0.000309  0.249009  0.994088  1
  B  B13  1  0.000309  0.750991  0.994088  1
  B  B14  1  0.665206  0.500000  0.330127  1
  B  B15  1  0.666331  0.000000  0.331392  1
  O  O16  1  0.900322  0.766729  0.804753  1
  O  O17  1  0.900322  0.233271  0.804753  1
  O  O18  1  0.537753  0.000000  0.797242  1
  O  O19  1  0.524198  0.500000  0.795236  1
  O  O20  1  0.855561  0.000000  0.451912  1
  O  O21  1  0.858346  0.500000  0.441158  1
  O  O22  1  0.900514  0.264236  0.095089  1
  O  O23  1  0.900514  0.735764  0.095089  1
  O  O24  1  0.541105  0.000000  0.397239  1
  O  O25  1  0.537419  0.500000  0.389866  1
  O  O26  1  0.210293  0.500000  0.750774  1
  O  O27  1  0.220463  0.000000  0.751342  1
  O  O28  1  0.255747  0.500000  0.481316  1
  O  O29  1  0.270597  0.000000  0.485100  1
  O  O30  1  0.592562  0.000000  0.133262  1
  O  O31  1  0.592964  0.500000  0.131337  1
  O  O32  1  0.195330  0.251632  0.095859  1
  O  O33  1  0.195330  0.748368  0.095859  1
