# generated using pymatgen
data_LiFe2P2HO8
_symmetry_space_group_name_H-M   'P 1'
_cell_length_a   5.14412914
_cell_length_b   8.58588927
_cell_length_c   8.68277282
_cell_angle_alpha   94.51511042
_cell_angle_beta   98.29349060
_cell_angle_gamma   106.93399707
_symmetry_Int_Tables_number   1
_chemical_formula_structural   LiFe2P2HO8
_chemical_formula_sum   'Li2 Fe4 P4 H2 O16'
_cell_volume   360.06216107
_cell_formula_units_Z   2
loop_
 _symmetry_equiv_pos_site_id
 _symmetry_equiv_pos_as_xyz
  1  'x, y, z'
loop_
 _atom_site_type_symbol
 _atom_site_label
 _atom_site_symmetry_multiplicity
 _atom_site_fract_x
 _atom_site_fract_y
 _atom_site_fract_z
 _atom_site_occupancy
  Li  Li0  1  0.376181  0.172822  0.675344  1
  Li  Li1  1  0.623819  0.827178  0.324656  1
  Fe  Fe2  1  0.233843  0.102636  0.276062  1
  Fe  Fe3  1  0.680258  0.377749  0.101624  1
  Fe  Fe4  1  0.319742  0.622251  0.898376  1
  Fe  Fe5  1  0.766157  0.897364  0.723938  1
  P  P6  1  0.856059  0.242444  0.432939  1
  P  P7  1  0.110054  0.244071  0.929575  1
  P  P8  1  0.889946  0.755929  0.070425  1
  P  P9  1  0.143941  0.757556  0.567061  1
  H  H10  1  0.889406  0.429102  0.629068  1
  H  H11  1  0.110594  0.570898  0.370932  1
  O  O12  1  0.611293  0.088446  0.362880  1
  O  O13  1  0.085309  0.086886  0.822133  1
  O  O14  1  0.825898  0.263774  0.942229  1
  O  O15  1  0.773094  0.311672  0.589864  1
  O  O16  1  0.122566  0.195051  0.475000  1
  O  O17  1  0.896420  0.377273  0.322600  1
  O  O18  1  0.273356  0.243092  0.097620  1
  O  O19  1  0.304583  0.386100  0.860590  1
  O  O20  1  0.695417  0.613900  0.139410  1
  O  O21  1  0.726644  0.756908  0.902380  1
  O  O22  1  0.103580  0.622727  0.677400  1
  O  O23  1  0.877434  0.804949  0.525000  1
  O  O24  1  0.226906  0.688328  0.410136  1
  O  O25  1  0.174102  0.736226  0.057771  1
  O  O26  1  0.914691  0.913114  0.177867  1
  O  O27  1  0.388707  0.911554  0.637120  1
