# generated using pymatgen
data_Li4Cr3NiO8
_symmetry_space_group_name_H-M   'P 1'
_cell_length_a   5.90944212
_cell_length_b   5.90944212
_cell_length_c   5.10054374
_cell_angle_alpha   73.15344333
_cell_angle_beta   106.84655667
_cell_angle_gamma   119.91196736
_symmetry_Int_Tables_number   1
_chemical_formula_structural   Li4Cr3NiO8
_chemical_formula_sum   'Li4 Cr3 Ni1 O8'
_cell_volume   145.48231149
_cell_formula_units_Z   1
loop_
 _symmetry_equiv_pos_site_id
 _symmetry_equiv_pos_as_xyz
  1  'x, y, z'
loop_
 _atom_site_type_symbol
 _atom_site_label
 _atom_site_symmetry_multiplicity
 _atom_site_fract_x
 _atom_site_fract_y
 _atom_site_fract_z
 _atom_site_occupancy
  Li  Li0  1  0.248507  0.751493  0.997166  1
  Li  Li1  1  0.751493  0.248507  0.002834  1
  Li  Li2  1  0.500000  0.000000  0.500000  1
  Li  Li3  1  0.000000  0.500000  0.500000  1
  Cr  Cr4  1  0.751054  0.751054  0.000000  1
  Cr  Cr5  1  0.248946  0.248946  0.000000  1
  Cr  Cr6  1  0.500000  0.500000  0.500000  1
  Ni  Ni7  1  0.000000  1.000000  0.500000  1
  O  O8  1  0.884946  0.115054  0.764861  1
  O  O9  1  0.386299  0.613701  0.753239  1
  O  O10  1  0.621739  0.847341  0.259045  1
  O  O11  1  0.378261  0.152659  0.740955  1
  O  O12  1  0.847341  0.621739  0.740955  1
  O  O13  1  0.115054  0.884946  0.235139  1
  O  O14  1  0.152659  0.378261  0.259045  1
  O  O15  1  0.613701  0.386299  0.246761  1
