# generated using pymatgen
data_Li4Mn3O6F
_symmetry_space_group_name_H-M   'P 1'
_cell_length_a   5.14940634
_cell_length_b   5.14940634
_cell_length_c   6.47722094
_cell_angle_alpha   83.15715500
_cell_angle_beta   96.84284500
_cell_angle_gamma   129.76226077
_symmetry_Int_Tables_number   1
_chemical_formula_structural   Li4Mn3O6F
_chemical_formula_sum   'Li4 Mn3 O6 F1'
_cell_volume   130.87889636
_cell_formula_units_Z   1
loop_
 _symmetry_equiv_pos_site_id
 _symmetry_equiv_pos_as_xyz
  1  'x, y, z'
loop_
 _atom_site_type_symbol
 _atom_site_label
 _atom_site_symmetry_multiplicity
 _atom_site_fract_x
 _atom_site_fract_y
 _atom_site_fract_z
 _atom_site_occupancy
  Li  Li0  1  0.423457  0.576543  0.288236  1
  Li  Li1  1  0.719497  0.280503  0.139425  1
  Li  Li2  1  0.280503  0.719497  0.860575  1
  Li  Li3  1  0.576543  0.423457  0.711764  1
  Mn  Mn4  1  0.144793  0.855207  0.428080  1
  Mn  Mn5  1  0.000000  0.000000  0.000000  1
  Mn  Mn6  1  0.855207  0.144793  0.571920  1
  O  O7  1  0.199470  0.800530  0.143160  1
  O  O8  1  0.940488  0.059512  0.295035  1
  O  O9  1  0.656996  0.343004  0.438238  1
  O  O10  1  0.800530  0.199470  0.856840  1
  O  O11  1  0.343004  0.656996  0.561762  1
  O  O12  1  0.059512  0.940488  0.704965  1
  F  F13  1  0.500000  0.500000  0.000000  1
