# generated using pymatgen
data_Fe6O7F5
_symmetry_space_group_name_H-M   'P 1'
_cell_length_a   5.65003962
_cell_length_b   5.65003962
_cell_length_c   7.69359087
_cell_angle_alpha   68.67567252
_cell_angle_beta   111.32432748
_cell_angle_gamma   110.95778878
_symmetry_Int_Tables_number   1
_chemical_formula_structural   Fe6O7F5
_chemical_formula_sum   'Fe6 O7 F5'
_cell_volume   205.80598585
_cell_formula_units_Z   1
loop_
 _symmetry_equiv_pos_site_id
 _symmetry_equiv_pos_as_xyz
  1  'x, y, z'
loop_
 _atom_site_type_symbol
 _atom_site_label
 _atom_site_symmetry_multiplicity
 _atom_site_fract_x
 _atom_site_fract_y
 _atom_site_fract_z
 _atom_site_occupancy
  Fe  Fe0  1  0.665095  0.334905  0.166797  1
  Fe  Fe1  1  0.335925  0.664075  0.346440  1
  Fe  Fe2  1  0.654159  0.345841  0.668976  1
  Fe  Fe3  1  0.344167  0.655833  0.812605  1
  Fe  Fe4  1  0.998278  0.001722  0.503535  1
  Fe  Fe5  1  0.004414  0.995586  0.998548  1
  O  O6  1  0.641101  0.972798  0.334913  1
  O  O7  1  0.969109  0.642915  0.664931  1
  O  O8  1  0.435739  0.564261  0.623992  1
  O  O9  1  0.357085  0.030891  0.664931  1
  O  O10  1  0.027202  0.358899  0.334913  1
  O  O11  1  0.701951  0.696848  0.999540  1
  O  O12  1  0.303152  0.298049  0.999540  1
  F  F13  1  0.890212  0.109788  0.703699  1
  F  F14  1  0.235378  0.764622  0.049240  1
  F  F15  1  0.565231  0.434769  0.368428  1
  F  F16  1  0.770213  0.229787  0.963056  1
  F  F17  1  0.101589  0.898411  0.295915  1
