# generated using pymatgen
data_Al2(SeO4)3
_symmetry_space_group_name_H-M   'P 1'
_cell_length_a   8.97251534
_cell_length_b   8.97251534
_cell_length_c   8.97251534
_cell_angle_alpha   56.42147031
_cell_angle_beta   56.42147031
_cell_angle_gamma   56.42147031
_symmetry_Int_Tables_number   1
_chemical_formula_structural   Al2(SeO4)3
_chemical_formula_sum   'Al4 Se6 O24'
_cell_volume   468.50967616
_cell_formula_units_Z   2
loop_
 _symmetry_equiv_pos_site_id
 _symmetry_equiv_pos_as_xyz
  1  'x, y, z'
loop_
 _atom_site_type_symbol
 _atom_site_label
 _atom_site_symmetry_multiplicity
 _atom_site_fract_x
 _atom_site_fract_y
 _atom_site_fract_z
 _atom_site_occupancy
  Al  Al0  1  0.351854  0.351854  0.351854  1
  Al  Al1  1  0.143517  0.143517  0.143517  1
  Al  Al2  1  0.856483  0.856483  0.856483  1
  Al  Al3  1  0.648146  0.648146  0.648146  1
  Se  Se4  1  0.459959  0.035748  0.751225  1
  Se  Se5  1  0.751225  0.459959  0.035748  1
  Se  Se6  1  0.035748  0.751225  0.459959  1
  Se  Se7  1  0.964252  0.248775  0.540041  1
  Se  Se8  1  0.248775  0.540041  0.964252  1
  Se  Se9  1  0.540041  0.964252  0.248775  1
  O  O10  1  0.482751  0.195255  0.529749  1
  O  O11  1  0.246077  0.118164  0.902868  1
  O  O12  1  0.630697  0.010064  0.796676  1
  O  O13  1  0.778544  0.478521  0.826290  1
  O  O14  1  0.902868  0.246077  0.118164  1
  O  O15  1  0.529749  0.482751  0.195255  1
  O  O16  1  0.195255  0.529749  0.482751  1
  O  O17  1  0.826290  0.778544  0.478521  1
  O  O18  1  0.989936  0.203324  0.369303  1
  O  O19  1  0.478521  0.826290  0.778544  1
  O  O20  1  0.881836  0.097132  0.753923  1
  O  O21  1  0.203324  0.369303  0.989936  1
  O  O22  1  0.796676  0.630697  0.010064  1
  O  O23  1  0.118164  0.902868  0.246077  1
  O  O24  1  0.521479  0.173710  0.221456  1
  O  O25  1  0.010064  0.796676  0.630697  1
  O  O26  1  0.173710  0.221456  0.521479  1
  O  O27  1  0.804745  0.470251  0.517249  1
  O  O28  1  0.470251  0.517249  0.804745  1
  O  O29  1  0.097132  0.753923  0.881836  1
  O  O30  1  0.221456  0.521479  0.173710  1
  O  O31  1  0.369303  0.989936  0.203324  1
  O  O32  1  0.753923  0.881836  0.097132  1
  O  O33  1  0.517249  0.804745  0.470251  1
