# generated using pymatgen
data_Fe6O5F7
_symmetry_space_group_name_H-M   'P 1'
_cell_length_a   5.68210212
_cell_length_b   5.68210212
_cell_length_c   7.40481730
_cell_angle_alpha   72.09976023
_cell_angle_beta   107.90023977
_cell_angle_gamma   107.87090716
_symmetry_Int_Tables_number   1
_chemical_formula_structural   Fe6O5F7
_chemical_formula_sum   'Fe6 O5 F7'
_cell_volume   210.44880176
_cell_formula_units_Z   1
loop_
 _symmetry_equiv_pos_site_id
 _symmetry_equiv_pos_as_xyz
  1  'x, y, z'
loop_
 _atom_site_type_symbol
 _atom_site_label
 _atom_site_symmetry_multiplicity
 _atom_site_fract_x
 _atom_site_fract_y
 _atom_site_fract_z
 _atom_site_occupancy
  Fe  Fe0  1  0.304327  0.695673  0.835848  1
  Fe  Fe1  1  0.661879  0.338121  0.668014  1
  Fe  Fe2  1  0.355010  0.644990  0.316220  1
  Fe  Fe3  1  0.671297  0.328703  0.162181  1
  Fe  Fe4  1  0.019609  0.980391  0.516042  1
  Fe  Fe5  1  0.991686  0.008314  0.999536  1
  O  O6  1  0.966587  0.638183  0.666956  1
  O  O7  1  0.775559  0.224441  0.959580  1
  O  O8  1  0.221980  0.778020  0.043212  1
  O  O9  1  0.570940  0.429060  0.374287  1
  O  O10  1  0.361817  0.033413  0.666956  1
  F  F11  1  0.650753  0.950762  0.349694  1
  F  F12  1  0.100019  0.899981  0.297032  1
  F  F13  1  0.426323  0.573677  0.624771  1
  F  F14  1  0.900851  0.099149  0.699011  1
  F  F15  1  0.049238  0.349247  0.349694  1
  F  F16  1  0.682184  0.710056  0.985482  1
  F  F17  1  0.289944  0.317816  0.985482  1
