# generated using pymatgen
data_LiSb(PO3)4
_symmetry_space_group_name_H-M   'P 1'
_cell_length_a   7.64386452
_cell_length_b   7.64386452
_cell_length_c   10.81114030
_cell_angle_alpha   65.26516021
_cell_angle_beta   114.73483979
_cell_angle_gamma   110.87342351
_symmetry_Int_Tables_number   1
_chemical_formula_structural   LiSb(PO3)4
_chemical_formula_sum   'Li2 Sb2 P8 O24'
_cell_volume   508.35851238
_cell_formula_units_Z   2
loop_
 _symmetry_equiv_pos_site_id
 _symmetry_equiv_pos_as_xyz
  1  'x, y, z'
loop_
 _atom_site_type_symbol
 _atom_site_label
 _atom_site_symmetry_multiplicity
 _atom_site_fract_x
 _atom_site_fract_y
 _atom_site_fract_z
 _atom_site_occupancy
  Li  Li0  1  0.994651  0.994651  0.750000  1
  Li  Li1  1  0.005349  0.005349  0.250000  1
  Sb  Sb2  1  0.500000  0.000000  0.000000  1
  Sb  Sb3  1  1.000000  0.500000  0.500000  1
  P  P4  1  0.319398  0.694099  0.310692  1
  P  P5  1  0.274462  0.254335  0.478061  1
  P  P6  1  0.254335  0.274462  0.021939  1
  P  P7  1  0.305901  0.680602  0.810692  1
  P  P8  1  0.694099  0.319398  0.189308  1
  P  P9  1  0.745665  0.725538  0.978061  1
  P  P10  1  0.725538  0.745665  0.521939  1
  P  P11  1  0.680602  0.305901  0.689308  1
  O  O12  1  0.351715  0.791733  0.167361  1
  O  O13  1  0.196022  0.285924  0.574189  1
  O  O14  1  0.315546  0.465383  0.354491  1
  O  O15  1  0.167422  0.098720  0.409963  1
  O  O16  1  0.281771  0.862554  0.821288  1
  O  O17  1  0.498363  0.225547  0.567879  1
  O  O18  1  0.714076  0.803978  0.074189  1
  O  O19  1  0.098720  0.167422  0.090037  1
  O  O20  1  0.225547  0.498363  0.932121  1
  O  O21  1  0.208267  0.648285  0.667361  1
  O  O22  1  0.465383  0.315546  0.145509  1
  O  O23  1  0.862554  0.281771  0.678712  1
  O  O24  1  0.137446  0.718229  0.321288  1
  O  O25  1  0.534617  0.684454  0.854491  1
  O  O26  1  0.791733  0.351715  0.332639  1
  O  O27  1  0.774453  0.501637  0.067879  1
  O  O28  1  0.901280  0.832578  0.909963  1
  O  O29  1  0.285924  0.196022  0.925811  1
  O  O30  1  0.501637  0.774453  0.432121  1
  O  O31  1  0.718229  0.137446  0.178712  1
  O  O32  1  0.832578  0.901280  0.590037  1
  O  O33  1  0.684454  0.534617  0.645509  1
  O  O34  1  0.803978  0.714076  0.425811  1
  O  O35  1  0.648285  0.208267  0.832639  1
