# generated using pymatgen
data_AlGaO3
_symmetry_space_group_name_H-M   'P 1'
_cell_length_a   4.99509188
_cell_length_b   8.62502808
_cell_length_c   9.15976062
_cell_angle_alpha   90.00000000
_cell_angle_beta   90.00000000
_cell_angle_gamma   90.00000000
_symmetry_Int_Tables_number   1
_chemical_formula_structural   AlGaO3
_chemical_formula_sum   'Al8 Ga8 O24'
_cell_volume   394.62820562
_cell_formula_units_Z   8
loop_
 _symmetry_equiv_pos_site_id
 _symmetry_equiv_pos_as_xyz
  1  'x, y, z'
loop_
 _atom_site_type_symbol
 _atom_site_label
 _atom_site_symmetry_multiplicity
 _atom_site_fract_x
 _atom_site_fract_y
 _atom_site_fract_z
 _atom_site_occupancy
  Al  Al0  1  0.180542  0.466093  0.790319  1
  Al  Al1  1  0.189706  0.157306  0.584683  1
  Al  Al2  1  0.310294  0.657306  0.084683  1
  Al  Al3  1  0.319458  0.966093  0.290319  1
  Al  Al4  1  0.680542  0.033907  0.790319  1
  Al  Al5  1  0.689706  0.342694  0.584683  1
  Al  Al6  1  0.810294  0.842694  0.084683  1
  Al  Al7  1  0.819458  0.533907  0.290319  1
  Ga  Ga8  1  0.182546  0.149405  0.991722  1
  Ga  Ga9  1  0.186319  0.842082  0.807600  1
  Ga  Ga10  1  0.313681  0.342082  0.307600  1
  Ga  Ga11  1  0.317454  0.649405  0.491722  1
  Ga  Ga12  1  0.682546  0.350595  0.991722  1
  Ga  Ga13  1  0.686319  0.657918  0.807600  1
  Ga  Ga14  1  0.813681  0.157918  0.307600  1
  Ga  Ga15  1  0.817454  0.850595  0.491722  1
  O  O16  1  0.032161  0.336010  0.932435  1
  O  O17  1  0.037884  0.012539  0.432793  1
  O  O18  1  0.019454  0.679270  0.934694  1
  O  O19  1  0.148616  0.831012  0.170045  1
  O  O20  1  0.168669  0.154361  0.197025  1
  O  O21  1  0.150338  0.507951  0.203076  1
  O  O22  1  0.349662  0.007951  0.703076  1
  O  O23  1  0.331331  0.654361  0.697025  1
  O  O24  1  0.351384  0.331012  0.670045  1
  O  O25  1  0.480546  0.179270  0.434694  1
  O  O26  1  0.462116  0.512539  0.932793  1
  O  O27  1  0.467839  0.836010  0.432435  1
  O  O28  1  0.532161  0.163990  0.932435  1
  O  O29  1  0.537884  0.487461  0.432793  1
  O  O30  1  0.519454  0.820730  0.934694  1
  O  O31  1  0.648616  0.668988  0.170045  1
  O  O32  1  0.668669  0.345639  0.197025  1
  O  O33  1  0.650338  0.992049  0.203076  1
  O  O34  1  0.849662  0.492049  0.703076  1
  O  O35  1  0.831331  0.845639  0.697025  1
  O  O36  1  0.851384  0.168988  0.670045  1
  O  O37  1  0.980546  0.320730  0.434694  1
  O  O38  1  0.962116  0.987461  0.932793  1
  O  O39  1  0.967839  0.663990  0.432435  1
