# generated using pymatgen
data_UP3H10BrO8
_symmetry_space_group_name_H-M   'P 1'
_cell_length_a   7.59804059
_cell_length_b   10.37720310
_cell_length_c   15.10987325
_cell_angle_alpha   90.00000000
_cell_angle_beta   90.00000000
_cell_angle_gamma   90.00000000
_symmetry_Int_Tables_number   1
_chemical_formula_structural   UP3H10BrO8
_chemical_formula_sum   'U4 P12 H40 Br4 O32'
_cell_volume   1191.35926682
_cell_formula_units_Z   4
loop_
 _symmetry_equiv_pos_site_id
 _symmetry_equiv_pos_as_xyz
  1  'x, y, z'
loop_
 _atom_site_type_symbol
 _atom_site_label
 _atom_site_symmetry_multiplicity
 _atom_site_fract_x
 _atom_site_fract_y
 _atom_site_fract_z
 _atom_site_occupancy
  U  U0  1  0.698233  0.928989  0.750000  1
  U  U1  1  0.301767  0.071011  0.250000  1
  U  U2  1  0.698233  0.571011  0.250000  1
  U  U3  1  0.301767  0.428989  0.750000  1
  P  P4  1  0.374555  0.126473  0.614348  1
  P  P5  1  0.625445  0.873527  0.114348  1
  P  P6  1  0.374555  0.373527  0.385652  1
  P  P7  1  0.625445  0.626473  0.885652  1
  P  P8  1  0.625445  0.873527  0.385652  1
  P  P9  1  0.374555  0.126473  0.885652  1
  P  P10  1  0.625445  0.626473  0.614348  1
  P  P11  1  0.374555  0.373527  0.114348  1
  P  P12  1  0.155020  0.778939  0.750000  1
  P  P13  1  0.844980  0.221061  0.250000  1
  P  P14  1  0.155020  0.721061  0.250000  1
  P  P15  1  0.844980  0.278939  0.750000  1
  H  H16  1  0.855427  0.046971  0.571262  1
  H  H17  1  0.144573  0.953029  0.071262  1
  H  H18  1  0.855427  0.453029  0.428738  1
  H  H19  1  0.144573  0.546971  0.928738  1
  H  H20  1  0.144573  0.953029  0.428738  1
  H  H21  1  0.855427  0.046971  0.928738  1
  H  H22  1  0.144573  0.546971  0.571262  1
  H  H23  1  0.855427  0.453029  0.071262  1
  H  H24  1  0.925858  0.901112  0.573535  1
  H  H25  1  0.074142  0.098888  0.073535  1
  H  H26  1  0.925858  0.598888  0.426465  1
  H  H27  1  0.074142  0.401112  0.926465  1
  H  H28  1  0.074142  0.098888  0.426465  1
  H  H29  1  0.925858  0.901112  0.926465  1
  H  H30  1  0.074142  0.401112  0.573535  1
  H  H31  1  0.925858  0.598888  0.073535  1
  H  H32  1  0.237232  0.834258  0.675269  1
  H  H33  1  0.762768  0.165742  0.175269  1
  H  H34  1  0.237232  0.665742  0.324731  1
  H  H35  1  0.762768  0.334258  0.824731  1
  H  H36  1  0.762768  0.165742  0.324731  1
  H  H37  1  0.237232  0.834258  0.824731  1
  H  H38  1  0.762768  0.334258  0.675269  1
  H  H39  1  0.237232  0.665742  0.175269  1
  H  H40  1  0.196733  0.084945  0.617201  1
  H  H41  1  0.803267  0.915055  0.117201  1
  H  H42  1  0.196733  0.415055  0.382799  1
  H  H43  1  0.803267  0.584945  0.882799  1
  H  H44  1  0.803267  0.915055  0.382799  1
  H  H45  1  0.196733  0.084945  0.882799  1
  H  H46  1  0.803267  0.584945  0.617201  1
  H  H47  1  0.196733  0.415055  0.117201  1
  H  H48  1  0.414194  0.135489  0.522632  1
  H  H49  1  0.585806  0.864511  0.022632  1
  H  H50  1  0.414194  0.364511  0.477368  1
  H  H51  1  0.585806  0.635489  0.977368  1
  H  H52  1  0.585806  0.864511  0.477368  1
  H  H53  1  0.414194  0.135489  0.977368  1
  H  H54  1  0.585806  0.635489  0.522632  1
  H  H55  1  0.414194  0.364511  0.022632  1
  Br  Br56  1  0.091577  0.750000  0.500000  1
  Br  Br57  1  0.908423  0.250000  0.000000  1
  Br  Br58  1  0.908423  0.250000  0.500000  1
  Br  Br59  1  0.091577  0.750000  0.000000  1
  O  O60  1  0.385605  0.260605  0.655388  1
  O  O61  1  0.614395  0.739395  0.155388  1
  O  O62  1  0.385605  0.239395  0.344612  1
  O  O63  1  0.614395  0.760605  0.844612  1
  O  O64  1  0.614395  0.739395  0.344612  1
  O  O65  1  0.385605  0.260605  0.844612  1
  O  O66  1  0.614395  0.760605  0.655388  1
  O  O67  1  0.385605  0.239395  0.155388  1
  O  O68  1  0.489112  0.021583  0.655044  1
  O  O69  1  0.510888  0.978417  0.155044  1
  O  O70  1  0.489112  0.478417  0.344956  1
  O  O71  1  0.510888  0.521583  0.844956  1
  O  O72  1  0.510888  0.978417  0.344956  1
  O  O73  1  0.489112  0.021583  0.844956  1
  O  O74  1  0.510888  0.521583  0.655044  1
  O  O75  1  0.489112  0.478417  0.155044  1
  O  O76  1  0.959582  0.815365  0.750000  1
  O  O77  1  0.040418  0.184635  0.250000  1
  O  O78  1  0.959582  0.684635  0.250000  1
  O  O79  1  0.040418  0.315365  0.750000  1
  O  O80  1  0.194118  0.634503  0.750000  1
  O  O81  1  0.805882  0.365497  0.250000  1
  O  O82  1  0.194118  0.865497  0.250000  1
  O  O83  1  0.805882  0.134503  0.750000  1
  O  O84  1  0.853810  0.966156  0.605198  1
  O  O85  1  0.146190  0.033844  0.105198  1
  O  O86  1  0.853810  0.533844  0.394802  1
  O  O87  1  0.146190  0.466156  0.894802  1
  O  O88  1  0.146190  0.033844  0.394802  1
  O  O89  1  0.853810  0.966156  0.894802  1
  O  O90  1  0.146190  0.466156  0.605198  1
  O  O91  1  0.853810  0.533844  0.105198  1
