# generated using pymatgen
data_Sr2Tl2O5
_symmetry_space_group_name_H-M   'P 1'
_cell_length_a   6.09902813
_cell_length_b   14.12409884
_cell_length_c   7.08522774
_cell_angle_alpha   90.00000000
_cell_angle_beta   106.51379282
_cell_angle_gamma   90.00000000
_symmetry_Int_Tables_number   1
_chemical_formula_structural   Sr2Tl2O5
_chemical_formula_sum   'Sr8 Tl8 O20'
_cell_volume   585.16882480
_cell_formula_units_Z   4
loop_
 _symmetry_equiv_pos_site_id
 _symmetry_equiv_pos_as_xyz
  1  'x, y, z'
loop_
 _atom_site_type_symbol
 _atom_site_label
 _atom_site_symmetry_multiplicity
 _atom_site_fract_x
 _atom_site_fract_y
 _atom_site_fract_z
 _atom_site_occupancy
  Sr  Sr0  1  0.546091  0.113298  0.135757  1
  Sr  Sr1  1  0.936859  0.763282  0.237773  1
  Sr  Sr2  1  0.453909  0.886702  0.864243  1
  Sr  Sr3  1  0.063141  0.236718  0.762227  1
  Sr  Sr4  1  0.546091  0.386702  0.635757  1
  Sr  Sr5  1  0.936859  0.736718  0.737773  1
  Sr  Sr6  1  0.063141  0.263282  0.262227  1
  Sr  Sr7  1  0.453909  0.613298  0.364243  1
  Tl  Tl8  1  0.545027  0.393105  0.136665  1
  Tl  Tl9  1  0.000000  0.000000  0.000000  1
  Tl  Tl10  1  0.454973  0.606895  0.863335  1
  Tl  Tl11  1  0.000000  0.500000  0.000000  1
  Tl  Tl12  1  0.545027  0.106895  0.636665  1
  Tl  Tl13  1  0.000000  0.500000  0.500000  1
  Tl  Tl14  1  0.454973  0.893105  0.363335  1
  Tl  Tl15  1  0.000000  0.000000  0.500000  1
  O  O16  1  0.166146  0.638557  0.035658  1
  O  O17  1  0.359364  0.265697  0.082413  1
  O  O18  1  0.733199  0.945858  0.185243  1
  O  O19  1  0.150019  0.860953  0.037162  1
  O  O20  1  0.707939  0.534659  0.176428  1
  O  O21  1  0.833854  0.361443  0.964342  1
  O  O22  1  0.266801  0.054142  0.814757  1
  O  O23  1  0.849981  0.139047  0.962838  1
  O  O24  1  0.292061  0.465341  0.823572  1
  O  O25  1  0.640636  0.734303  0.917587  1
  O  O26  1  0.150019  0.639047  0.537162  1
  O  O27  1  0.166146  0.861443  0.535658  1
  O  O28  1  0.359364  0.234303  0.582413  1
  O  O29  1  0.733199  0.554142  0.685243  1
  O  O30  1  0.707939  0.965341  0.676428  1
  O  O31  1  0.292061  0.034659  0.323572  1
  O  O32  1  0.266801  0.445858  0.314757  1
  O  O33  1  0.640636  0.765697  0.417587  1
  O  O34  1  0.833854  0.138557  0.464342  1
  O  O35  1  0.849981  0.360953  0.462838  1
