# generated using pymatgen
data_Ta5Pb11O26
_symmetry_space_group_name_H-M   'P 1'
_cell_length_a   7.67974033
_cell_length_b   7.67974033
_cell_length_c   13.46593779
_cell_angle_alpha   72.98548886
_cell_angle_beta   107.01451114
_cell_angle_gamma   120.08219881
_symmetry_Int_Tables_number   1
_chemical_formula_structural   Ta5Pb11O26
_chemical_formula_sum   'Ta5 Pb11 O26'
_cell_volume   646.84442171
_cell_formula_units_Z   1
loop_
 _symmetry_equiv_pos_site_id
 _symmetry_equiv_pos_as_xyz
  1  'x, y, z'
loop_
 _atom_site_type_symbol
 _atom_site_label
 _atom_site_symmetry_multiplicity
 _atom_site_fract_x
 _atom_site_fract_y
 _atom_site_fract_z
 _atom_site_occupancy
  Ta  Ta0  1  0.000000  0.000000  0.000000  1
  Ta  Ta1  1  0.500000  0.000000  0.000000  1
  Ta  Ta2  1  0.000000  0.500000  0.000000  1
  Ta  Ta3  1  0.000000  0.500000  0.500000  1
  Ta  Ta4  1  0.500000  0.000000  0.500000  1
  Pb  Pb5  1  0.500000  0.500000  0.000000  1
  Pb  Pb6  1  0.743884  0.748424  0.742685  1
  Pb  Pb7  1  0.251576  0.256116  0.742685  1
  Pb  Pb8  1  0.248629  0.751371  0.743311  1
  Pb  Pb9  1  0.000000  0.000000  0.500000  1
  Pb  Pb10  1  0.500000  0.500000  0.500000  1
  Pb  Pb11  1  0.750935  0.249065  0.754208  1
  Pb  Pb12  1  0.256116  0.251576  0.257315  1
  Pb  Pb13  1  0.748424  0.743884  0.257315  1
  Pb  Pb14  1  0.751371  0.248629  0.256689  1
  Pb  Pb15  1  0.249065  0.750935  0.245792  1
  O  O16  1  0.284370  0.715630  0.979880  1
  O  O17  1  0.920630  0.079370  0.844875  1
  O  O18  1  0.572001  0.006776  0.655470  1
  O  O19  1  0.283378  0.089390  0.977569  1
  O  O20  1  0.993224  0.427999  0.655470  1
  O  O21  1  0.431835  0.568165  0.800940  1
  O  O22  1  0.910610  0.716622  0.977569  1
  O  O23  1  0.772794  0.227206  0.475618  1
  O  O24  1  0.495814  0.073718  0.844104  1
  O  O25  1  0.621721  0.807874  0.532960  1
  O  O26  1  0.926282  0.504186  0.844104  1
  O  O27  1  0.192126  0.378279  0.532960  1
  O  O28  1  0.577272  0.422728  0.671222  1
  O  O29  1  0.422728  0.577272  0.328778  1
  O  O30  1  0.073718  0.495814  0.155896  1
  O  O31  1  0.807874  0.621721  0.467040  1
  O  O32  1  0.504186  0.926282  0.155896  1
  O  O33  1  0.378279  0.192126  0.467040  1
  O  O34  1  0.227206  0.772794  0.524382  1
  O  O35  1  0.089390  0.283378  0.022431  1
  O  O36  1  0.006776  0.572001  0.344530  1
  O  O37  1  0.716622  0.910610  0.022431  1
  O  O38  1  0.568165  0.431835  0.199060  1
  O  O39  1  0.427999  0.993224  0.344530  1
  O  O40  1  0.079370  0.920630  0.155125  1
  O  O41  1  0.715630  0.284370  0.020120  1
