# generated using pymatgen
data_FeOF
_symmetry_space_group_name_H-M   'P 1'
_cell_length_a   9.54797460
_cell_length_b   3.06703092
_cell_length_c   9.57587948
_cell_angle_alpha   90.00000000
_cell_angle_beta   90.71210957
_cell_angle_gamma   90.00000000
_symmetry_Int_Tables_number   1
_chemical_formula_structural   FeOF
_chemical_formula_sum   'Fe8 O8 F8'
_cell_volume   280.39775818
_cell_formula_units_Z   8
loop_
 _symmetry_equiv_pos_site_id
 _symmetry_equiv_pos_as_xyz
  1  'x, y, z'
loop_
 _atom_site_type_symbol
 _atom_site_label
 _atom_site_symmetry_multiplicity
 _atom_site_fract_x
 _atom_site_fract_y
 _atom_site_fract_z
 _atom_site_occupancy
  Fe  Fe0  1  0.999938  0.000000  0.020339  1
  Fe  Fe1  1  0.991097  0.000000  0.492505  1
  Fe  Fe2  1  0.720224  0.500000  0.759999  1
  Fe  Fe3  1  0.769946  0.500000  0.251254  1
  Fe  Fe4  1  0.498154  0.000000  0.518241  1
  Fe  Fe5  1  0.490532  0.000000  0.990729  1
  Fe  Fe6  1  0.269045  0.500000  0.748125  1
  Fe  Fe7  1  0.262844  0.500000  0.216831  1
  O  O8  1  0.900422  0.500000  0.099414  1
  O  O9  1  0.852668  0.000000  0.354283  1
  O  O10  1  0.654628  0.000000  0.650007  1
  O  O11  1  0.597191  0.500000  0.909686  1
  O  O12  1  0.395749  0.500000  0.588937  1
  O  O13  1  0.409894  0.500000  0.096328  1
  O  O14  1  0.338556  0.000000  0.844690  1
  O  O15  1  0.154054  0.000000  0.149926  1
  F  F16  1  0.909217  0.500000  0.601537  1
  F  F17  1  0.848678  0.000000  0.844578  1
  F  F18  1  0.656921  0.000000  0.166504  1
  F  F19  1  0.598829  0.500000  0.399128  1
  F  F20  1  0.349972  0.000000  0.342858  1
  F  F21  1  0.142912  0.000000  0.647338  1
  F  F22  1  0.088215  0.500000  0.896389  1
  F  F23  1  0.100313  0.500000  0.410370  1
