# generated using pymatgen
data_NaCo2P3O10
_symmetry_space_group_name_H-M   'P 1'
_cell_length_a   4.73018803
_cell_length_b   8.63821825
_cell_length_c   9.11612043
_cell_angle_alpha   90.00000000
_cell_angle_beta   97.65932675
_cell_angle_gamma   90.00000000
_symmetry_Int_Tables_number   1
_chemical_formula_structural   NaCo2P3O10
_chemical_formula_sum   'Na2 Co4 P6 O20'
_cell_volume   369.16497933
_cell_formula_units_Z   2
loop_
 _symmetry_equiv_pos_site_id
 _symmetry_equiv_pos_as_xyz
  1  'x, y, z'
loop_
 _atom_site_type_symbol
 _atom_site_label
 _atom_site_symmetry_multiplicity
 _atom_site_fract_x
 _atom_site_fract_y
 _atom_site_fract_z
 _atom_site_occupancy
  Na  Na0  1  0.000000  0.000000  0.000000  1
  Na  Na1  1  0.000000  0.500000  0.000000  1
  Co  Co2  1  0.954554  0.929245  0.658700  1
  Co  Co3  1  0.954554  0.570755  0.658700  1
  Co  Co4  1  0.045446  0.429245  0.341300  1
  Co  Co5  1  0.045446  0.070755  0.341300  1
  P  P6  1  0.665910  0.750000  0.182921  1
  P  P7  1  0.610051  0.250000  0.539670  1
  P  P8  1  0.473117  0.250000  0.150977  1
  P  P9  1  0.526883  0.750000  0.849023  1
  P  P10  1  0.389949  0.750000  0.460330  1
  P  P11  1  0.334090  0.250000  0.817079  1
  O  O12  1  0.833511  0.899069  0.199234  1
  O  O13  1  0.833511  0.600931  0.199234  1
  O  O14  1  0.780362  0.250000  0.234090  1
  O  O15  1  0.776336  0.399186  0.515200  1
  O  O16  1  0.776336  0.100814  0.515200  1
  O  O17  1  0.690947  0.750000  0.547025  1
  O  O18  1  0.689494  0.898055  0.826203  1
  O  O19  1  0.689494  0.601945  0.826203  1
  O  O20  1  0.463051  0.750000  0.024212  1
  O  O21  1  0.580050  0.250000  0.713851  1
  O  O22  1  0.419950  0.750000  0.286149  1
  O  O23  1  0.536949  0.250000  0.975788  1
  O  O24  1  0.310506  0.398055  0.173797  1
  O  O25  1  0.310506  0.101945  0.173797  1
  O  O26  1  0.309053  0.250000  0.452975  1
  O  O27  1  0.223664  0.899186  0.484800  1
  O  O28  1  0.223664  0.600814  0.484800  1
  O  O29  1  0.219638  0.750000  0.765910  1
  O  O30  1  0.166489  0.399069  0.800766  1
  O  O31  1  0.166489  0.100931  0.800766  1
