# generated using pymatgen
data_Fe2Cu(PO4)3
_symmetry_space_group_name_H-M   'P 1'
_cell_length_a   8.50668352
_cell_length_b   8.50668352
_cell_length_c   8.50668352
_cell_angle_alpha   60.86941490
_cell_angle_beta   60.86941490
_cell_angle_gamma   60.86941490
_symmetry_Int_Tables_number   1
_chemical_formula_structural   Fe2Cu(PO4)3
_chemical_formula_sum   'Fe4 Cu2 P6 O24'
_cell_volume   443.80884572
_cell_formula_units_Z   2
loop_
 _symmetry_equiv_pos_site_id
 _symmetry_equiv_pos_as_xyz
  1  'x, y, z'
loop_
 _atom_site_type_symbol
 _atom_site_label
 _atom_site_symmetry_multiplicity
 _atom_site_fract_x
 _atom_site_fract_y
 _atom_site_fract_z
 _atom_site_occupancy
  Fe  Fe0  1  0.855661  0.855661  0.855661  1
  Fe  Fe1  1  0.644339  0.644339  0.644339  1
  Fe  Fe2  1  0.355661  0.355661  0.355661  1
  Fe  Fe3  1  0.144339  0.144339  0.144339  1
  Cu  Cu4  1  0.000000  0.000000  0.000000  1
  Cu  Cu5  1  0.500000  0.500000  0.500000  1
  P  P6  1  0.545944  0.954056  0.250000  1
  P  P7  1  0.250000  0.545944  0.954056  1
  P  P8  1  0.954056  0.250000  0.545944  1
  P  P9  1  0.045944  0.750000  0.454056  1
  P  P10  1  0.750000  0.454056  0.045944  1
  P  P11  1  0.454056  0.045944  0.750000  1
  O  O12  1  0.495614  0.890817  0.680359  1
  O  O13  1  0.890817  0.680359  0.495614  1
  O  O14  1  0.745071  0.940134  0.089602  1
  O  O15  1  0.680359  0.495614  0.890817  1
  O  O16  1  0.390816  0.995614  0.180359  1
  O  O17  1  0.559866  0.754929  0.410398  1
  O  O18  1  0.089602  0.745071  0.940134  1
  O  O19  1  0.410398  0.559866  0.754929  1
  O  O20  1  0.004386  0.819641  0.609184  1
  O  O21  1  0.754929  0.410398  0.559866  1
  O  O22  1  0.059866  0.910398  0.254929  1
  O  O23  1  0.819641  0.609184  0.004386  1
  O  O24  1  0.180359  0.390817  0.995614  1
  O  O25  1  0.940134  0.089602  0.745071  1
  O  O26  1  0.245071  0.589602  0.440134  1
  O  O27  1  0.995614  0.180359  0.390817  1
  O  O28  1  0.589602  0.440134  0.245071  1
  O  O29  1  0.910398  0.254929  0.059866  1
  O  O30  1  0.440134  0.245071  0.589602  1
  O  O31  1  0.609184  0.004386  0.819641  1
  O  O32  1  0.319641  0.504386  0.109184  1
  O  O33  1  0.254929  0.059866  0.910398  1
  O  O34  1  0.109184  0.319641  0.504386  1
  O  O35  1  0.504386  0.109184  0.319641  1
