# generated using pymatgen
data_V5CuO12
_symmetry_space_group_name_H-M   'P 1'
_cell_length_a   6.75536767
_cell_length_b   6.75536767
_cell_length_c   5.91215873
_cell_angle_alpha   75.54370291
_cell_angle_beta   104.45629709
_cell_angle_gamma   95.64983369
_symmetry_Int_Tables_number   1
_chemical_formula_structural   V5CuO12
_chemical_formula_sum   'V5 Cu1 O12'
_cell_volume   252.79922236
_cell_formula_units_Z   1
loop_
 _symmetry_equiv_pos_site_id
 _symmetry_equiv_pos_as_xyz
  1  'x, y, z'
loop_
 _atom_site_type_symbol
 _atom_site_label
 _atom_site_symmetry_multiplicity
 _atom_site_fract_x
 _atom_site_fract_y
 _atom_site_fract_z
 _atom_site_occupancy
  V  V0  1  0.083540  0.083540  0.500000  1
  V  V1  1  0.386757  0.796673  0.006597  1
  V  V2  1  0.211989  0.607819  0.520379  1
  V  V3  1  0.796673  0.386757  0.993403  1
  V  V4  1  0.607819  0.211989  0.479621  1
  Cu  Cu5  1  0.906573  0.906573  0.000000  1
  O  O6  1  0.190610  0.965826  0.871835  1
  O  O7  1  0.618357  0.915646  0.031782  1
  O  O8  1  0.041075  0.801205  0.427172  1
  O  O9  1  0.367761  0.627782  0.805906  1
  O  O10  1  0.915646  0.618357  0.968218  1
  O  O11  1  0.361384  0.652763  0.303441  1
  O  O12  1  0.627782  0.367761  0.194094  1
  O  O13  1  0.095563  0.368675  0.540518  1
  O  O14  1  0.652763  0.361384  0.696559  1
  O  O15  1  0.965826  0.190610  0.128165  1
  O  O16  1  0.368675  0.095563  0.459482  1
  O  O17  1  0.801205  0.041075  0.572828  1
