# generated using pymatgen
data_LiNiPO4
_symmetry_space_group_name_H-M   'P 1'
_cell_length_a   5.06315662
_cell_length_b   5.06315662
_cell_length_c   6.15931940
_cell_angle_alpha   90.00000000
_cell_angle_beta   90.00000000
_cell_angle_gamma   112.26973819
_symmetry_Int_Tables_number   1
_chemical_formula_structural   LiNiPO4
_chemical_formula_sum   'Li2 Ni2 P2 O8'
_cell_volume   146.11999219
_cell_formula_units_Z   2
loop_
 _symmetry_equiv_pos_site_id
 _symmetry_equiv_pos_as_xyz
  1  'x, y, z'
loop_
 _atom_site_type_symbol
 _atom_site_label
 _atom_site_symmetry_multiplicity
 _atom_site_fract_x
 _atom_site_fract_y
 _atom_site_fract_z
 _atom_site_occupancy
  Li  Li0  1  0.500000  0.500000  0.000000  1
  Li  Li1  1  0.500000  0.500000  0.500000  1
  Ni  Ni2  1  0.828184  0.171816  0.250000  1
  Ni  Ni3  1  0.171816  0.828184  0.750000  1
  P  P4  1  0.859354  0.140646  0.750000  1
  P  P5  1  0.140646  0.859354  0.250000  1
  O  O6  1  0.192693  0.245866  0.750000  1
  O  O7  1  0.245866  0.192693  0.250000  1
  O  O8  1  0.750356  0.249644  0.548754  1
  O  O9  1  0.249644  0.750356  0.048754  1
  O  O10  1  0.750356  0.249644  0.951246  1
  O  O11  1  0.249644  0.750356  0.451246  1
  O  O12  1  0.807307  0.754134  0.250000  1
  O  O13  1  0.754134  0.807307  0.750000  1
