# generated using pymatgen
data_V3OF11
_symmetry_space_group_name_H-M   'P 1'
_cell_length_a   5.42947969
_cell_length_b   5.99007590
_cell_length_c   7.32589955
_cell_angle_alpha   94.54921602
_cell_angle_beta   99.24876131
_cell_angle_gamma   97.52179518
_symmetry_Int_Tables_number   1
_chemical_formula_structural   V3OF11
_chemical_formula_sum   'V3 O1 F11'
_cell_volume   231.90988122
_cell_formula_units_Z   1
loop_
 _symmetry_equiv_pos_site_id
 _symmetry_equiv_pos_as_xyz
  1  'x, y, z'
loop_
 _atom_site_type_symbol
 _atom_site_label
 _atom_site_symmetry_multiplicity
 _atom_site_fract_x
 _atom_site_fract_y
 _atom_site_fract_z
 _atom_site_occupancy
  V  V0  1  0.941948  0.011839  0.971010  1
  V  V1  1  0.373698  0.829661  0.629187  1
  V  V2  1  0.603641  0.159646  0.366474  1
  O  O3  1  0.667533  0.016714  0.840430  1
  F  F4  1  0.125941  0.276124  0.963735  1
  F  F5  1  0.453644  0.598957  0.746389  1
  F  F6  1  0.114173  0.894860  0.777161  1
  F  F7  1  0.363811  0.134320  0.541141  1
  F  F8  1  0.859765  0.266619  0.546073  1
  F  F9  1  0.134918  0.710199  0.441651  1
  F  F10  1  0.627517  0.844603  0.477031  1
  F  F11  1  0.872188  0.121806  0.203949  1
  F  F12  1  0.533227  0.421159  0.286146  1
  F  F13  1  0.383206  0.992778  0.175648  1
  F  F14  1  0.928532  0.736614  0.041076  1
