# generated using pymatgen
data_LiCo2(PO4)2
_symmetry_space_group_name_H-M   'P 1'
_cell_length_a   8.48014309
_cell_length_b   5.15519543
_cell_length_c   16.73510646
_cell_angle_alpha   90.00000000
_cell_angle_beta   101.29033883
_cell_angle_gamma   90.00000000
_symmetry_Int_Tables_number   1
_chemical_formula_structural   LiCo2(PO4)2
_chemical_formula_sum   'Li4 Co8 P8 O32'
_cell_volume   717.44696178
_cell_formula_units_Z   4
loop_
 _symmetry_equiv_pos_site_id
 _symmetry_equiv_pos_as_xyz
  1  'x, y, z'
loop_
 _atom_site_type_symbol
 _atom_site_label
 _atom_site_symmetry_multiplicity
 _atom_site_fract_x
 _atom_site_fract_y
 _atom_site_fract_z
 _atom_site_occupancy
  Li  Li0  1  0.003617  0.327139  0.748931  1
  Li  Li1  1  0.003617  0.672861  0.248931  1
  Li  Li2  1  0.608134  0.830763  0.508278  1
  Li  Li3  1  0.608134  0.169237  0.008278  1
  Co  Co4  1  0.365278  0.326171  0.872061  1
  Co  Co5  1  0.365278  0.673829  0.372061  1
  Co  Co6  1  0.469697  0.187152  0.634979  1
  Co  Co7  1  0.469697  0.812848  0.134979  1
  Co  Co8  1  0.876908  0.691015  0.883929  1
  Co  Co9  1  0.876908  0.308985  0.383929  1
  Co  Co10  1  0.978823  0.825948  0.625098  1
  Co  Co11  1  0.978823  0.174052  0.125098  1
  P  P12  1  0.177064  0.814082  0.812507  1
  P  P13  1  0.177064  0.185918  0.312507  1
  P  P14  1  0.297527  0.691956  0.564386  1
  P  P15  1  0.297527  0.308044  0.064386  1
  P  P16  1  0.687148  0.190948  0.819361  1
  P  P17  1  0.687148  0.809052  0.319361  1
  P  P18  1  0.788126  0.317887  0.568221  1
  P  P19  1  0.788126  0.682113  0.068221  1
  O  O20  1  0.089784  0.753313  0.885725  1
  O  O21  1  0.064697  0.698718  0.735977  1
  O  O22  1  0.194847  0.111701  0.802839  1
  O  O23  1  0.122077  0.777607  0.549457  1
  O  O24  1  0.089784  0.246687  0.385725  1
  O  O25  1  0.064697  0.301282  0.235977  1
  O  O26  1  0.375489  0.276613  0.989282  1
  O  O27  1  0.341256  0.681080  0.831628  1
  O  O28  1  0.305188  0.398681  0.590286  1
  O  O29  1  0.194847  0.888299  0.302839  1
  O  O30  1  0.122077  0.222393  0.049457  1
  O  O31  1  0.406213  0.842060  0.635733  1
  O  O32  1  0.375489  0.723387  0.489282  1
  O  O33  1  0.341256  0.318920  0.331628  1
  O  O34  1  0.305188  0.601319  0.090286  1
  O  O35  1  0.601991  0.238906  0.891540  1
  O  O36  1  0.571182  0.270198  0.740035  1
  O  O37  1  0.406213  0.157940  0.135733  1
  O  O38  1  0.732443  0.901380  0.813644  1
  O  O39  1  0.618208  0.189626  0.561191  1
  O  O40  1  0.601991  0.761094  0.391540  1
  O  O41  1  0.571182  0.729802  0.240035  1
  O  O42  1  0.841857  0.752965  0.987502  1
  O  O43  1  0.845036  0.356865  0.830076  1
  O  O44  1  0.779357  0.613839  0.580432  1
  O  O45  1  0.732443  0.098620  0.313644  1
  O  O46  1  0.618208  0.810374  0.061191  1
  O  O47  1  0.907686  0.191069  0.639586  1
  O  O48  1  0.841857  0.247035  0.487502  1
  O  O49  1  0.845036  0.643135  0.330076  1
  O  O50  1  0.779357  0.386161  0.080432  1
  O  O51  1  0.907686  0.808931  0.139586  1
