# generated using pymatgen
data_Na5Ni2P2(CO7)2
_symmetry_space_group_name_H-M   'P 1'
_cell_length_a   5.19858355
_cell_length_b   6.63543650
_cell_length_c   17.64704930
_cell_angle_alpha   90.00000000
_cell_angle_beta   91.66578461
_cell_angle_gamma   90.00000000
_symmetry_Int_Tables_number   1
_chemical_formula_structural   Na5Ni2P2(CO7)2
_chemical_formula_sum   'Na10 Ni4 P4 C4 O28'
_cell_volume   608.47543785
_cell_formula_units_Z   2
loop_
 _symmetry_equiv_pos_site_id
 _symmetry_equiv_pos_as_xyz
  1  'x, y, z'
loop_
 _atom_site_type_symbol
 _atom_site_label
 _atom_site_symmetry_multiplicity
 _atom_site_fract_x
 _atom_site_fract_y
 _atom_site_fract_z
 _atom_site_occupancy
  Na  Na0  1  0.254481  0.013714  0.116577  1
  Na  Na1  1  0.254481  0.486286  0.116577  1
  Na  Na2  1  0.745519  0.513714  0.883423  1
  Na  Na3  1  0.745519  0.986286  0.883423  1
  Na  Na4  1  0.776968  0.250000  0.710234  1
  Na  Na5  1  0.254512  0.007251  0.617148  1
  Na  Na6  1  0.254512  0.492749  0.617148  1
  Na  Na7  1  0.745488  0.507251  0.382852  1
  Na  Na8  1  0.745488  0.992749  0.382852  1
  Na  Na9  1  0.223032  0.750000  0.289766  1
  Ni  Ni10  1  0.777527  0.750000  0.077400  1
  Ni  Ni11  1  0.222473  0.250000  0.922600  1
  Ni  Ni12  1  0.777808  0.750000  0.577323  1
  Ni  Ni13  1  0.222192  0.250000  0.422677  1
  P  P14  1  0.719010  0.250000  0.040644  1
  P  P15  1  0.280990  0.750000  0.959356  1
  P  P16  1  0.719813  0.250000  0.540554  1
  P  P17  1  0.280187  0.750000  0.459446  1
  C  C18  1  0.710273  0.750000  0.218275  1
  C  C19  1  0.289727  0.250000  0.781725  1
  C  C20  1  0.712083  0.750000  0.716799  1
  C  C21  1  0.287917  0.250000  0.283201  1
  O  O22  1  0.317278  0.250000  0.212747  1
  O  O23  1  0.935499  0.750000  0.188618  1
  O  O24  1  0.510776  0.750000  0.172078  1
  O  O25  1  0.791114  0.062654  0.088949  1
  O  O26  1  0.791114  0.437346  0.088949  1
  O  O27  1  0.142292  0.750000  0.035567  1
  O  O28  1  0.421721  0.250000  0.023434  1
  O  O29  1  0.578279  0.750000  0.976566  1
  O  O30  1  0.857708  0.250000  0.964433  1
  O  O31  1  0.208886  0.562654  0.911051  1
  O  O32  1  0.208886  0.937346  0.911051  1
  O  O33  1  0.489224  0.250000  0.827922  1
  O  O34  1  0.064501  0.250000  0.811382  1
  O  O35  1  0.682722  0.750000  0.787253  1
  O  O36  1  0.313766  0.250000  0.709383  1
  O  O37  1  0.937697  0.750000  0.687148  1
  O  O38  1  0.519457  0.750000  0.667705  1
  O  O39  1  0.787706  0.064428  0.590924  1
  O  O40  1  0.787706  0.435572  0.590924  1
  O  O41  1  0.136043  0.750000  0.534595  1
  O  O42  1  0.424398  0.250000  0.521381  1
  O  O43  1  0.575602  0.750000  0.478619  1
  O  O44  1  0.863957  0.250000  0.465405  1
  O  O45  1  0.212294  0.564428  0.409076  1
  O  O46  1  0.212294  0.935572  0.409076  1
  O  O47  1  0.480543  0.250000  0.332295  1
  O  O48  1  0.062303  0.250000  0.312852  1
  O  O49  1  0.686234  0.750000  0.290617  1
