# generated using pymatgen
data_Na2LiMnPCO7
_symmetry_space_group_name_H-M   'P 1'
_cell_length_a   5.11277176
_cell_length_b   6.78910857
_cell_length_c   8.87032414
_cell_angle_alpha   90.72375988
_cell_angle_beta   90.84342324
_cell_angle_gamma   90.07023394
_symmetry_Int_Tables_number   1
_chemical_formula_structural   Na2LiMnPCO7
_chemical_formula_sum   'Na4 Li2 Mn2 P2 C2 O14'
_cell_volume   307.84103445
_cell_formula_units_Z   2
loop_
 _symmetry_equiv_pos_site_id
 _symmetry_equiv_pos_as_xyz
  1  'x, y, z'
loop_
 _atom_site_type_symbol
 _atom_site_label
 _atom_site_symmetry_multiplicity
 _atom_site_fract_x
 _atom_site_fract_y
 _atom_site_fract_z
 _atom_site_occupancy
  Na  Na0  1  0.242583  0.258151  0.083689  1
  Na  Na1  1  0.750306  0.999463  0.255491  1
  Na  Na2  1  0.248052  0.502366  0.744213  1
  Na  Na3  1  0.246605  0.997935  0.743508  1
  Li  Li4  1  0.772248  0.477932  0.272806  1
  Li  Li5  1  0.746331  0.741216  0.914759  1
  Mn  Mn6  1  0.220762  0.745756  0.358974  1
  Mn  Mn7  1  0.775634  0.250329  0.640406  1
  P  P8  1  0.292022  0.253452  0.408212  1
  P  P9  1  0.701176  0.746027  0.591173  1
  C  C10  1  0.271505  0.748877  0.051739  1
  C  C11  1  0.736145  0.258617  0.945509  1
  O  O12  1  0.717847  0.271597  0.091786  1
  O  O13  1  0.026685  0.750805  0.090834  1
  O  O14  1  0.457014  0.742330  0.154553  1
  O  O15  1  0.218824  0.063986  0.316353  1
  O  O16  1  0.181161  0.430121  0.317116  1
  O  O17  1  0.597971  0.271095  0.420462  1
  O  O18  1  0.817595  0.734118  0.429601  1
  O  O19  1  0.182120  0.249055  0.569857  1
  O  O20  1  0.397182  0.747271  0.573053  1
  O  O21  1  0.783881  0.569227  0.691748  1
  O  O22  1  0.789353  0.933900  0.680309  1
  O  O23  1  0.526637  0.250984  0.860575  1
  O  O24  1  0.963000  0.252596  0.881827  1
  O  O25  1  0.337364  0.752795  0.911450  1
