# generated using pymatgen
data_Mn3(O2F)2
_symmetry_space_group_name_H-M   'P 1'
_cell_length_a   4.59672860
_cell_length_b   4.59672860
_cell_length_c   9.24909804
_cell_angle_alpha   89.68908930
_cell_angle_beta   90.31091070
_cell_angle_gamma   90.00658988
_symmetry_Int_Tables_number   1
_chemical_formula_structural   Mn3(O2F)2
_chemical_formula_sum   'Mn6 O8 F4'
_cell_volume   195.42688956
_cell_formula_units_Z   2
loop_
 _symmetry_equiv_pos_site_id
 _symmetry_equiv_pos_as_xyz
  1  'x, y, z'
loop_
 _atom_site_type_symbol
 _atom_site_label
 _atom_site_symmetry_multiplicity
 _atom_site_fract_x
 _atom_site_fract_y
 _atom_site_fract_z
 _atom_site_occupancy
  Mn  Mn0  1  0.961509  0.011196  0.159486  1
  Mn  Mn1  1  0.011196  0.961509  0.840514  1
  Mn  Mn2  1  0.988077  0.988077  0.500000  1
  Mn  Mn3  1  0.523218  0.512364  0.339681  1
  Mn  Mn4  1  0.488140  0.488140  0.000000  1
  Mn  Mn5  1  0.512364  0.523218  0.660319  1
  O  O6  1  0.793514  0.793514  0.000000  1
  O  O7  1  0.815868  0.801160  0.672238  1
  O  O8  1  0.801160  0.815868  0.327762  1
  O  O9  1  0.316415  0.681268  0.829470  1
  O  O10  1  0.314280  0.700902  0.499899  1
  O  O11  1  0.681268  0.316415  0.170530  1
  O  O12  1  0.700902  0.314280  0.500101  1
  O  O13  1  0.181953  0.181953  0.000000  1
  F  F14  1  0.289126  0.712095  0.180996  1
  F  F15  1  0.712095  0.289126  0.819004  1
  F  F16  1  0.210459  0.198456  0.669918  1
  F  F17  1  0.198456  0.210459  0.330082  1
