# generated using pymatgen
data_Li4Ti15O32
_symmetry_space_group_name_H-M   'P 1'
_cell_length_a   19.76762496
_cell_length_b   19.76762496
_cell_length_c   19.76762496
_cell_angle_alpha   17.37286305
_cell_angle_beta   17.37286305
_cell_angle_gamma   17.37286305
_symmetry_Int_Tables_number   1
_chemical_formula_structural   Li4Ti15O32
_chemical_formula_sum   'Li4 Ti15 O32'
_cell_volume   600.97348704
_cell_formula_units_Z   1
loop_
 _symmetry_equiv_pos_site_id
 _symmetry_equiv_pos_as_xyz
  1  'x, y, z'
loop_
 _atom_site_type_symbol
 _atom_site_label
 _atom_site_symmetry_multiplicity
 _atom_site_fract_x
 _atom_site_fract_y
 _atom_site_fract_z
 _atom_site_occupancy
  Li  Li0  1  0.187667  0.187667  0.187667  1
  Li  Li1  1  0.843274  0.843274  0.843274  1
  Li  Li2  1  0.249937  0.249937  0.249937  1
  Li  Li3  1  0.498758  0.498758  0.498758  1
  Ti  Ti4  1  0.723826  0.217180  0.217180  1
  Ti  Ti5  1  0.345351  0.345351  0.345351  1
  Ti  Ti6  1  0.217180  0.723826  0.217180  1
  Ti  Ti7  1  0.217180  0.217180  0.723826  1
  Ti  Ti8  1  0.095720  0.095720  0.095720  1
  Ti  Ti9  1  0.721650  0.210311  0.721650  1
  Ti  Ti10  1  0.965434  0.477946  0.965434  1
  Ti  Ti11  1  0.965434  0.965434  0.477946  1
  Ti  Ti12  1  0.477946  0.965434  0.965434  1
  Ti  Ti13  1  0.210311  0.721650  0.721650  1
  Ti  Ti14  1  0.721650  0.721650  0.210311  1
  Ti  Ti15  1  0.469133  0.469133  0.969741  1
  Ti  Ti16  1  0.969741  0.469133  0.469133  1
  Ti  Ti17  1  0.594294  0.594294  0.594294  1
  Ti  Ti18  1  0.469133  0.969741  0.469133  1
  O  O19  1  0.510745  0.074673  0.510745  1
  O  O20  1  0.074673  0.510745  0.510745  1
  O  O21  1  0.402252  0.402252  0.402252  1
  O  O22  1  0.035063  0.035063  0.035063  1
  O  O23  1  0.664253  0.131192  0.664253  1
  O  O24  1  0.924010  0.924010  0.365231  1
  O  O25  1  0.924010  0.365231  0.924010  1
  O  O26  1  0.259970  0.259970  0.827393  1
  O  O27  1  0.510745  0.510745  0.074673  1
  O  O28  1  0.555705  0.023778  0.023778  1
  O  O29  1  0.827393  0.259970  0.259970  1
  O  O30  1  0.153786  0.153786  0.153786  1
  O  O31  1  0.785406  0.785406  0.785406  1
  O  O32  1  0.131192  0.664253  0.664253  1
  O  O33  1  0.365231  0.924010  0.924010  1
  O  O34  1  0.424734  0.424734  0.865958  1
  O  O35  1  0.664253  0.664253  0.131192  1
  O  O36  1  0.023778  0.023778  0.555705  1
  O  O37  1  0.259970  0.827393  0.259970  1
  O  O38  1  0.023778  0.555705  0.023778  1
  O  O39  1  0.902205  0.902205  0.902205  1
  O  O40  1  0.865958  0.424734  0.424734  1
  O  O41  1  0.533923  0.533923  0.533923  1
  O  O42  1  0.613206  0.174635  0.174635  1
  O  O43  1  0.284019  0.284019  0.284019  1
  O  O44  1  0.174635  0.174635  0.613206  1
  O  O45  1  0.424734  0.865958  0.424734  1
  O  O46  1  0.174635  0.613206  0.174635  1
  O  O47  1  0.761130  0.324902  0.761130  1
  O  O48  1  0.761130  0.761130  0.324902  1
  O  O49  1  0.652462  0.652462  0.652462  1
  O  O50  1  0.324902  0.761130  0.761130  1
