# generated using pymatgen
data_Li9Mn4(BO3)8
_symmetry_space_group_name_H-M   'P 1'
_cell_length_a   5.21370988
_cell_length_b   8.79872399
_cell_length_c   9.71670680
_cell_angle_alpha   89.07092980
_cell_angle_beta   86.32865038
_cell_angle_gamma   89.00391060
_symmetry_Int_Tables_number   1
_chemical_formula_structural   Li9Mn4(BO3)8
_chemical_formula_sum   'Li9 Mn4 B8 O24'
_cell_volume   444.71121532
_cell_formula_units_Z   1
loop_
 _symmetry_equiv_pos_site_id
 _symmetry_equiv_pos_as_xyz
  1  'x, y, z'
loop_
 _atom_site_type_symbol
 _atom_site_label
 _atom_site_symmetry_multiplicity
 _atom_site_fract_x
 _atom_site_fract_y
 _atom_site_fract_z
 _atom_site_occupancy
  Li  Li0  1  0.865808  0.016691  0.681162  1
  Li  Li1  1  0.704834  0.534484  0.384565  1
  Li  Li2  1  0.899324  0.055508  0.145370  1
  Li  Li3  1  0.820994  0.349454  0.618933  1
  Li  Li4  1  0.627012  0.571206  0.837501  1
  Li  Li5  1  0.330035  0.472932  0.607686  1
  Li  Li6  1  0.383365  0.433984  0.157362  1
  Li  Li7  1  0.221828  0.968026  0.888264  1
  Li  Li8  1  0.192523  0.686510  0.372113  1
  Mn  Mn9  1  0.118313  0.298365  0.876951  1
  Mn  Mn10  1  0.609236  0.205293  0.376177  1
  Mn  Mn11  1  0.385305  0.795695  0.623027  1
  Mn  Mn12  1  0.894741  0.709702  0.120972  1
  B  B13  1  0.848730  0.678363  0.610375  1
  B  B14  1  0.846738  0.367860  0.138645  1
  B  B15  1  0.677998  0.213317  0.885142  1
  B  B16  1  0.681919  0.863923  0.363776  1
  B  B17  1  0.330247  0.149642  0.638251  1
  B  B18  1  0.338422  0.789647  0.114216  1
  B  B19  1  0.158453  0.636521  0.866351  1
  B  B20  1  0.171113  0.294611  0.385595  1
  O  O21  1  0.918319  0.659706  0.930356  1
  O  O22  1  0.917282  0.333878  0.405961  1
  O  O23  1  0.890566  0.114936  0.894057  1
  O  O24  1  0.764915  0.360629  0.855477  1
  O  O25  1  0.854050  0.746784  0.317903  1
  O  O26  1  0.760918  0.010689  0.341666  1
  O  O27  1  0.681047  0.558984  0.605308  1
  O  O28  1  0.752573  0.820470  0.646136  1
  O  O29  1  0.750329  0.512030  0.166846  1
  O  O30  1  0.682153  0.249544  0.179828  1
  O  O31  1  0.578886  0.179190  0.577802  1
  O  O32  1  0.586993  0.829540  0.101484  1
  O  O33  1  0.428131  0.172658  0.895594  1
  O  O34  1  0.452717  0.817174  0.426217  1
  O  O35  1  0.267047  0.493382  0.843291  1
  O  O36  1  0.314183  0.754513  0.820699  1
  O  O37  1  0.264510  0.149649  0.360756  1
  O  O38  1  0.237712  0.010198  0.665008  1
  O  O39  1  0.372698  0.399133  0.390576  1
  O  O40  1  0.171884  0.277573  0.675774  1
  O  O41  1  0.247040  0.645000  0.154309  1
  O  O42  1  0.129830  0.884973  0.086510  1
  O  O43  1  0.109561  0.654663  0.579054  1
  O  O44  1  0.083933  0.333267  0.073843  1
