# generated using pymatgen
data_Li4Ti2Nb3Ni3O16
_symmetry_space_group_name_H-M   'P 1'
_cell_length_a   6.03116113
_cell_length_b   6.03116113
_cell_length_c   9.77231610
_cell_angle_alpha   89.33389338
_cell_angle_beta   90.66610662
_cell_angle_gamma   120.43054915
_symmetry_Int_Tables_number   1
_chemical_formula_structural   Li4Ti2Nb3Ni3O16
_chemical_formula_sum   'Li4 Ti2 Nb3 Ni3 O16'
_cell_volume   306.47175261
_cell_formula_units_Z   1
loop_
 _symmetry_equiv_pos_site_id
 _symmetry_equiv_pos_as_xyz
  1  'x, y, z'
loop_
 _atom_site_type_symbol
 _atom_site_label
 _atom_site_symmetry_multiplicity
 _atom_site_fract_x
 _atom_site_fract_y
 _atom_site_fract_z
 _atom_site_occupancy
  Li  Li0  1  0.666447  0.333553  0.892155  1
  Li  Li1  1  0.984660  0.015340  0.985172  1
  Li  Li2  1  0.991277  0.008723  0.501747  1
  Li  Li3  1  0.334099  0.665901  0.403875  1
  Ti  Ti4  1  0.669905  0.330095  0.507521  1
  Ti  Ti5  1  0.358075  0.641925  0.981065  1
  Nb  Nb6  1  0.342237  0.160010  0.217124  1
  Nb  Nb7  1  0.839990  0.657763  0.217124  1
  Nb  Nb8  1  0.177018  0.822982  0.725679  1
  Ni  Ni9  1  0.829976  0.170024  0.208849  1
  Ni  Ni10  1  0.170288  0.339382  0.708541  1
  Ni  Ni11  1  0.660618  0.829712  0.708541  1
  O  O12  1  0.343759  0.161682  0.594200  1
  O  O13  1  0.513862  0.486138  0.340804  1
  O  O14  1  0.663066  0.336934  0.094358  1
  O  O15  1  0.994831  0.005169  0.314612  1
  O  O16  1  0.003714  0.996286  0.800537  1
  O  O17  1  0.838318  0.656241  0.594200  1
  O  O18  1  0.509325  0.041037  0.343685  1
  O  O19  1  0.958963  0.490675  0.343685  1
  O  O20  1  0.166258  0.833742  0.095266  1
  O  O21  1  0.826267  0.173733  0.592120  1
  O  O22  1  0.037031  0.525831  0.849337  1
  O  O23  1  0.474169  0.962969  0.849337  1
  O  O24  1  0.323991  0.676009  0.601621  1
  O  O25  1  0.177401  0.334997  0.093854  1
  O  O26  1  0.479709  0.520291  0.848946  1
  O  O27  1  0.665003  0.822599  0.093854  1
