# generated using pymatgen
data_Li8(FeO2)5
_symmetry_space_group_name_H-M   'P 1'
_cell_length_a   5.45247586
_cell_length_b   5.45247586
_cell_length_c   14.46813150
_cell_angle_alpha   74.46992116
_cell_angle_beta   105.53007884
_cell_angle_gamma   141.28485093
_symmetry_Int_Tables_number   1
_chemical_formula_structural   Li8(FeO2)5
_chemical_formula_sum   'Li8 Fe5 O10'
_cell_volume   257.96417811
_cell_formula_units_Z   1
loop_
 _symmetry_equiv_pos_site_id
 _symmetry_equiv_pos_as_xyz
  1  'x, y, z'
loop_
 _atom_site_type_symbol
 _atom_site_label
 _atom_site_symmetry_multiplicity
 _atom_site_fract_x
 _atom_site_fract_y
 _atom_site_fract_z
 _atom_site_occupancy
  Li  Li0  1  0.785835  0.214165  0.464515  1
  Li  Li1  1  0.215401  0.784599  0.338286  1
  Li  Li2  1  0.776040  0.223960  0.244088  1
  Li  Li3  1  0.774375  0.225625  0.072711  1
  Li  Li4  1  0.215349  0.784651  0.947670  1
  Li  Li5  1  0.223263  0.776737  0.735106  1
  Li  Li6  1  0.786861  0.213139  0.853467  1
  Li  Li7  1  0.226525  0.773475  0.557687  1
  Fe  Fe8  1  0.501463  0.498537  0.800353  1
  Fe  Fe9  1  0.500136  0.499864  0.401781  1
  Fe  Fe10  1  0.505651  0.494349  0.601329  1
  Fe  Fe11  1  0.499099  0.500901  0.001087  1
  Fe  Fe12  1  0.494941  0.505059  0.197538  1
  O  O13  1  0.625512  0.374488  0.130901  1
  O  O14  1  0.374195  0.625805  0.681672  1
  O  O15  1  0.366961  0.633039  0.269960  1
  O  O16  1  0.353991  0.646009  0.471467  1
  O  O17  1  0.359083  0.640917  0.075304  1
  O  O18  1  0.640383  0.359617  0.925370  1
  O  O19  1  0.640956  0.359044  0.527153  1
  O  O20  1  0.637205  0.362795  0.737293  1
  O  O21  1  0.635974  0.364026  0.318689  1
  O  O22  1  0.363730  0.636270  0.869029  1
