# generated using pymatgen
data_LiCo5O8
_symmetry_space_group_name_H-M   'P 1'
_cell_length_a   8.11380911
_cell_length_b   8.11380911
_cell_length_c   8.11380911
_cell_angle_alpha   90.00000000
_cell_angle_beta   90.00000000
_cell_angle_gamma   90.00000000
_symmetry_Int_Tables_number   1
_chemical_formula_structural   LiCo5O8
_chemical_formula_sum   'Li4 Co20 O32'
_cell_volume   534.16368356
_cell_formula_units_Z   4
loop_
 _symmetry_equiv_pos_site_id
 _symmetry_equiv_pos_as_xyz
  1  'x, y, z'
loop_
 _atom_site_type_symbol
 _atom_site_label
 _atom_site_symmetry_multiplicity
 _atom_site_fract_x
 _atom_site_fract_y
 _atom_site_fract_z
 _atom_site_occupancy
  Li  Li0  1  0.125000  0.875000  0.375000  1
  Li  Li1  1  0.375000  0.125000  0.875000  1
  Li  Li2  1  0.625000  0.625000  0.625000  1
  Li  Li3  1  0.875000  0.375000  0.125000  1
  Co  Co4  1  0.000088  0.000088  0.000088  1
  Co  Co5  1  0.999912  0.500088  0.499912  1
  Co  Co6  1  0.125366  0.124634  0.625000  1
  Co  Co7  1  0.124634  0.625000  0.125366  1
  Co  Co8  1  0.125000  0.374634  0.875366  1
  Co  Co9  1  0.249912  0.249912  0.249912  1
  Co  Co10  1  0.250088  0.750088  0.749912  1
  Co  Co11  1  0.375366  0.375000  0.625366  1
  Co  Co12  1  0.375000  0.625366  0.375366  1
  Co  Co13  1  0.374634  0.875366  0.125000  1
  Co  Co14  1  0.499912  0.999912  0.500088  1
  Co  Co15  1  0.500088  0.499912  0.999912  1
  Co  Co16  1  0.625000  0.125366  0.124634  1
  Co  Co17  1  0.625366  0.375366  0.375000  1
  Co  Co18  1  0.624634  0.875000  0.874634  1
  Co  Co19  1  0.749912  0.250088  0.750088  1
  Co  Co20  1  0.750088  0.749912  0.250088  1
  Co  Co21  1  0.875366  0.125000  0.374634  1
  Co  Co22  1  0.874634  0.624634  0.875000  1
  Co  Co23  1  0.875000  0.874634  0.624634  1
  O  O24  1  0.128605  0.390995  0.106764  1
  O  O25  1  0.138013  0.361987  0.638013  1
  O  O26  1  0.143236  0.859005  0.121395  1
  O  O27  1  0.106764  0.128605  0.390995  1
  O  O28  1  0.109005  0.893236  0.628605  1
  O  O29  1  0.121395  0.143236  0.859005  1
  O  O30  1  0.140995  0.621395  0.356764  1
  O  O31  1  0.111987  0.611987  0.888013  1
  O  O32  1  0.390995  0.106764  0.128605  1
  O  O33  1  0.388013  0.388013  0.388013  1
  O  O34  1  0.356764  0.140995  0.621395  1
  O  O35  1  0.359005  0.378605  0.856764  1
  O  O36  1  0.361987  0.638013  0.138013  1
  O  O37  1  0.378605  0.856764  0.359005  1
  O  O38  1  0.371395  0.609005  0.606764  1
  O  O39  1  0.393236  0.871395  0.890995  1
  O  O40  1  0.638013  0.138013  0.361987  1
  O  O41  1  0.621395  0.356764  0.140995  1
  O  O42  1  0.606764  0.371395  0.609005  1
  O  O43  1  0.609005  0.606764  0.371395  1
  O  O44  1  0.628605  0.109005  0.893236  1
  O  O45  1  0.643236  0.640995  0.878605  1
  O  O46  1  0.611987  0.888013  0.111987  1
  O  O47  1  0.640995  0.878605  0.643236  1
  O  O48  1  0.859005  0.121395  0.143236  1
  O  O49  1  0.888013  0.111987  0.611987  1
  O  O50  1  0.856764  0.359005  0.378605  1
  O  O51  1  0.893236  0.628605  0.109005  1
  O  O52  1  0.878605  0.643236  0.640995  1
  O  O53  1  0.890995  0.393236  0.871395  1
  O  O54  1  0.871395  0.890995  0.393236  1
  O  O55  1  0.861987  0.861987  0.861987  1
