# generated using pymatgen
data_PH4N(OF)2
_symmetry_space_group_name_H-M   'P 1'
_cell_length_a   6.54702150
_cell_length_b   7.98037355
_cell_length_c   8.23344673
_cell_angle_alpha   90.00000000
_cell_angle_beta   90.00000000
_cell_angle_gamma   90.00000000
_symmetry_Int_Tables_number   1
_chemical_formula_structural   PH4N(OF)2
_chemical_formula_sum   'P4 H16 N4 O8 F8'
_cell_volume   430.17846707
_cell_formula_units_Z   4
loop_
 _symmetry_equiv_pos_site_id
 _symmetry_equiv_pos_as_xyz
  1  'x, y, z'
loop_
 _atom_site_type_symbol
 _atom_site_label
 _atom_site_symmetry_multiplicity
 _atom_site_fract_x
 _atom_site_fract_y
 _atom_site_fract_z
 _atom_site_occupancy
  P  P0  1  0.250000  0.819558  0.606403  1
  P  P1  1  0.250000  0.680442  0.106403  1
  P  P2  1  0.750000  0.180442  0.393597  1
  P  P3  1  0.750000  0.319558  0.893597  1
  H  H4  1  0.250000  0.481848  0.622003  1
  H  H5  1  0.250000  0.018152  0.122003  1
  H  H6  1  0.750000  0.518152  0.377997  1
  H  H7  1  0.750000  0.981848  0.877997  1
  H  H8  1  0.250000  0.316452  0.747741  1
  H  H9  1  0.250000  0.183548  0.247741  1
  H  H10  1  0.750000  0.683548  0.252259  1
  H  H11  1  0.750000  0.816452  0.752259  1
  H  H12  1  0.121069  0.309232  0.567403  1
  H  H13  1  0.378931  0.190768  0.067403  1
  H  H14  1  0.621069  0.690768  0.432597  1
  H  H15  1  0.878931  0.809232  0.932597  1
  H  H16  1  0.878931  0.690768  0.432597  1
  H  H17  1  0.621069  0.809232  0.932597  1
  H  H18  1  0.378931  0.309232  0.567403  1
  H  H19  1  0.121069  0.190768  0.067403  1
  N  N20  1  0.250000  0.353014  0.628533  1
  N  N21  1  0.250000  0.146986  0.128533  1
  N  N22  1  0.750000  0.646986  0.371467  1
  N  N23  1  0.750000  0.853014  0.871467  1
  O  O24  1  0.051387  0.727837  0.608354  1
  O  O25  1  0.448613  0.772163  0.108354  1
  O  O26  1  0.551387  0.272163  0.391646  1
  O  O27  1  0.948613  0.227837  0.891646  1
  O  O28  1  0.948613  0.272163  0.391646  1
  O  O29  1  0.551387  0.227837  0.891646  1
  O  O30  1  0.448613  0.727837  0.608354  1
  O  O31  1  0.051387  0.772163  0.108354  1
  F  F32  1  0.250000  0.954744  0.748042  1
  F  F33  1  0.250000  0.545256  0.248042  1
  F  F34  1  0.750000  0.045256  0.251958  1
  F  F35  1  0.750000  0.454744  0.751958  1
  F  F36  1  0.250000  0.947333  0.458238  1
  F  F37  1  0.250000  0.552667  0.958238  1
  F  F38  1  0.750000  0.052667  0.541762  1
  F  F39  1  0.750000  0.447333  0.041762  1
