# generated using pymatgen
data_Li3Cr10Fe5O24
_symmetry_space_group_name_H-M   'P 1'
_cell_length_a   5.99048970
_cell_length_b   5.99048970
_cell_length_c   14.66454838
_cell_angle_alpha   89.92576697
_cell_angle_beta   90.07423303
_cell_angle_gamma   119.99779741
_symmetry_Int_Tables_number   1
_chemical_formula_structural   Li3Cr10Fe5O24
_chemical_formula_sum   'Li3 Cr10 Fe5 O24'
_cell_volume   455.75676958
_cell_formula_units_Z   1
loop_
 _symmetry_equiv_pos_site_id
 _symmetry_equiv_pos_as_xyz
  1  'x, y, z'
loop_
 _atom_site_type_symbol
 _atom_site_label
 _atom_site_symmetry_multiplicity
 _atom_site_fract_x
 _atom_site_fract_y
 _atom_site_fract_z
 _atom_site_occupancy
  Li  Li0  1  0.667600  0.332400  0.916914  1
  Li  Li1  1  0.333796  0.666204  0.583491  1
  Li  Li2  1  0.999728  0.000272  0.249087  1
  Cr  Cr3  1  0.170786  0.829214  0.793493  1
  Cr  Cr4  1  0.659325  0.829329  0.793483  1
  Cr  Cr5  1  0.837202  0.675212  0.459177  1
  Cr  Cr6  1  0.324788  0.162798  0.459177  1
  Cr  Cr7  1  0.170671  0.340675  0.793483  1
  Cr  Cr8  1  0.837241  0.162759  0.458957  1
  Cr  Cr9  1  0.666117  0.333883  0.288066  1
  Cr  Cr10  1  0.000116  0.999884  0.622208  1
  Cr  Cr11  1  0.991906  0.496232  0.125382  1
  Cr  Cr12  1  0.503768  0.008094  0.125382  1
  Fe  Fe13  1  0.334409  0.665591  0.954323  1
  Fe  Fe14  1  0.666541  0.333459  0.667222  1
  Fe  Fe15  1  0.000777  0.999223  0.000288  1
  Fe  Fe16  1  0.505948  0.494052  0.125763  1
  Fe  Fe17  1  0.332486  0.667514  0.332625  1
  O  O18  1  0.313853  0.156742  0.711580  1
  O  O19  1  0.843258  0.686147  0.711580  1
  O  O20  1  0.485122  0.968989  0.871136  1
  O  O21  1  0.031011  0.514878  0.871136  1
  O  O22  1  0.149421  0.850579  0.537494  1
  O  O23  1  0.333468  0.666532  0.722533  1
  O  O24  1  0.485781  0.514219  0.870938  1
  O  O25  1  0.666464  0.333536  0.534599  1
  O  O26  1  0.509091  0.490909  0.377062  1
  O  O27  1  0.000398  0.999602  0.868092  1
  O  O28  1  0.843047  0.156953  0.711538  1
  O  O29  1  0.979691  0.490377  0.376732  1
  O  O30  1  0.509623  0.020309  0.376732  1
  O  O31  1  0.819228  0.635730  0.203935  1
  O  O32  1  0.701465  0.850927  0.537361  1
  O  O33  1  0.364270  0.180772  0.203935  1
  O  O34  1  0.149073  0.298535  0.537361  1
  O  O35  1  0.814900  0.185100  0.203448  1
  O  O36  1  0.667565  0.332435  0.052480  1
  O  O37  1  0.999627  0.000373  0.387643  1
  O  O38  1  0.176399  0.823601  0.044592  1
  O  O39  1  0.331777  0.668223  0.200647  1
  O  O40  1  0.648780  0.826520  0.044463  1
  O  O41  1  0.173480  0.351220  0.044463  1
