# generated using pymatgen
data_NaLi2CoPCO7
_symmetry_space_group_name_H-M   'P 1'
_cell_length_a   5.08343692
_cell_length_b   6.56375351
_cell_length_c   8.55594412
_cell_angle_alpha   90.00000000
_cell_angle_beta   95.02883127
_cell_angle_gamma   90.00000000
_symmetry_Int_Tables_number   1
_chemical_formula_structural   NaLi2CoPCO7
_chemical_formula_sum   'Na2 Li4 Co2 P2 C2 O14'
_cell_volume   284.38238548
_cell_formula_units_Z   2
loop_
 _symmetry_equiv_pos_site_id
 _symmetry_equiv_pos_as_xyz
  1  'x, y, z'
loop_
 _atom_site_type_symbol
 _atom_site_label
 _atom_site_symmetry_multiplicity
 _atom_site_fract_x
 _atom_site_fract_y
 _atom_site_fract_z
 _atom_site_occupancy
  Na  Na0  1  0.766957  0.481509  0.233052  1
  Na  Na1  1  0.233043  0.981509  0.766948  1
  Li  Li2  1  0.274747  0.226828  0.394513  1
  Li  Li3  1  0.745543  0.991672  0.240579  1
  Li  Li4  1  0.254457  0.491672  0.759421  1
  Li  Li5  1  0.725253  0.726828  0.605487  1
  Co  Co6  1  0.283201  0.753274  0.162569  1
  Co  Co7  1  0.716799  0.253274  0.837431  1
  P  P8  1  0.226669  0.251848  0.087033  1
  P  P9  1  0.773331  0.751848  0.912967  1
  C  C10  1  0.199813  0.740202  0.456807  1
  C  C11  1  0.800187  0.240202  0.543193  1
  O  O12  1  0.875842  0.209552  0.404987  1
  O  O13  1  0.447115  0.749591  0.429879  1
  O  O14  1  0.021902  0.762493  0.336790  1
  O  O15  1  0.335610  0.067889  0.189846  1
  O  O16  1  0.298545  0.438449  0.196392  1
  O  O17  1  0.651587  0.764296  0.071888  1
  O  O18  1  0.921536  0.234698  0.057573  1
  O  O19  1  0.078464  0.734698  0.942427  1
  O  O20  1  0.348413  0.264296  0.928112  1
  O  O21  1  0.701455  0.938449  0.803608  1
  O  O22  1  0.664390  0.567889  0.810154  1
  O  O23  1  0.978098  0.262493  0.663210  1
  O  O24  1  0.552885  0.249591  0.570121  1
  O  O25  1  0.124158  0.709552  0.595013  1
