# generated using pymatgen
data_Sn(PO3)2
_symmetry_space_group_name_H-M   'P 1'
_cell_length_a   7.35476357
_cell_length_b   9.97153037
_cell_length_c   15.19318361
_cell_angle_alpha   90.00000000
_cell_angle_beta   90.00000000
_cell_angle_gamma   90.00000000
_symmetry_Int_Tables_number   1
_chemical_formula_structural   Sn(PO3)2
_chemical_formula_sum   'Sn8 P16 O48'
_cell_volume   1114.24147209
_cell_formula_units_Z   8
loop_
 _symmetry_equiv_pos_site_id
 _symmetry_equiv_pos_as_xyz
  1  'x, y, z'
loop_
 _atom_site_type_symbol
 _atom_site_label
 _atom_site_symmetry_multiplicity
 _atom_site_fract_x
 _atom_site_fract_y
 _atom_site_fract_z
 _atom_site_occupancy
  Sn  Sn0  1  0.440374  0.005956  0.695778  1
  Sn  Sn1  1  0.940374  0.005956  0.804222  1
  Sn  Sn2  1  0.940374  0.494044  0.304222  1
  Sn  Sn3  1  0.440374  0.494044  0.195778  1
  Sn  Sn4  1  0.059626  0.505956  0.695778  1
  Sn  Sn5  1  0.559626  0.505956  0.804222  1
  Sn  Sn6  1  0.059626  0.994044  0.195778  1
  Sn  Sn7  1  0.559626  0.994044  0.304222  1
  P  P8  1  0.588029  0.200997  0.913065  1
  P  P9  1  0.088029  0.200997  0.586935  1
  P  P10  1  0.700462  0.217199  0.099187  1
  P  P11  1  0.200462  0.217199  0.400813  1
  P  P12  1  0.700462  0.282801  0.599187  1
  P  P13  1  0.200462  0.282801  0.900813  1
  P  P14  1  0.088029  0.299003  0.086935  1
  P  P15  1  0.588029  0.299003  0.413065  1
  P  P16  1  0.911971  0.700997  0.913065  1
  P  P17  1  0.411971  0.700997  0.586935  1
  P  P18  1  0.799538  0.717199  0.099187  1
  P  P19  1  0.299538  0.717199  0.400813  1
  P  P20  1  0.299538  0.782801  0.900813  1
  P  P21  1  0.799538  0.782801  0.599187  1
  P  P22  1  0.411971  0.799003  0.086935  1
  P  P23  1  0.911971  0.799003  0.413065  1
  O  O24  1  0.649862  0.103532  0.843047  1
  O  O25  1  0.149862  0.103532  0.656953  1
  O  O26  1  0.257604  0.110763  0.336056  1
  O  O27  1  0.757604  0.110763  0.163944  1
  O  O28  1  0.660940  0.143848  0.005850  1
  O  O29  1  0.160940  0.143848  0.494150  1
  O  O30  1  0.637757  0.152775  0.403834  1
  O  O31  1  0.137757  0.152775  0.096166  1
  O  O32  1  0.370213  0.184714  0.922010  1
  O  O33  1  0.870213  0.184714  0.577990  1
  O  O34  1  0.540662  0.194783  0.621627  1
  O  O35  1  0.040662  0.194783  0.878373  1
  O  O36  1  0.540662  0.305217  0.121627  1
  O  O37  1  0.040662  0.305217  0.378373  1
  O  O38  1  0.870213  0.315286  0.077990  1
  O  O39  1  0.370213  0.315286  0.422010  1
  O  O40  1  0.137757  0.347225  0.596166  1
  O  O41  1  0.637757  0.347225  0.903834  1
  O  O42  1  0.660940  0.356152  0.505850  1
  O  O43  1  0.160940  0.356152  0.994150  1
  O  O44  1  0.757604  0.389237  0.663944  1
  O  O45  1  0.257604  0.389237  0.836056  1
  O  O46  1  0.149862  0.396468  0.156953  1
  O  O47  1  0.649862  0.396468  0.343047  1
  O  O48  1  0.350138  0.603532  0.656953  1
  O  O49  1  0.850138  0.603532  0.843047  1
  O  O50  1  0.742396  0.610763  0.163944  1
  O  O51  1  0.242396  0.610763  0.336056  1
  O  O52  1  0.839060  0.643848  0.005850  1
  O  O53  1  0.339060  0.643848  0.494150  1
  O  O54  1  0.362243  0.652775  0.096166  1
  O  O55  1  0.862243  0.652775  0.403834  1
  O  O56  1  0.129787  0.684714  0.922010  1
  O  O57  1  0.629787  0.684714  0.577990  1
  O  O58  1  0.459338  0.694783  0.878373  1
  O  O59  1  0.959338  0.694783  0.621627  1
  O  O60  1  0.959338  0.805217  0.121627  1
  O  O61  1  0.459338  0.805217  0.378373  1
  O  O62  1  0.629787  0.815286  0.077990  1
  O  O63  1  0.129787  0.815286  0.422010  1
  O  O64  1  0.862243  0.847225  0.903834  1
  O  O65  1  0.362243  0.847225  0.596166  1
  O  O66  1  0.839060  0.856152  0.505850  1
  O  O67  1  0.339060  0.856152  0.994150  1
  O  O68  1  0.742396  0.889237  0.663944  1
  O  O69  1  0.242396  0.889237  0.836056  1
  O  O70  1  0.350138  0.896468  0.156953  1
  O  O71  1  0.850138  0.896468  0.343047  1
