# generated using pymatgen
data_Sr3Li4Nb6O20
_symmetry_space_group_name_H-M   'P 1'
_cell_length_a   5.66539129
_cell_length_b   5.66543540
_cell_length_c   13.58513549
_cell_angle_alpha   90.07991457
_cell_angle_beta   101.93497198
_cell_angle_gamma   90.07550332
_symmetry_Int_Tables_number   1
_chemical_formula_structural   Sr3Li4Nb6O20
_chemical_formula_sum   'Sr3 Li4 Nb6 O20'
_cell_volume   426.61393833
_cell_formula_units_Z   1
loop_
 _symmetry_equiv_pos_site_id
 _symmetry_equiv_pos_as_xyz
  1  'x, y, z'
loop_
 _atom_site_type_symbol
 _atom_site_label
 _atom_site_symmetry_multiplicity
 _atom_site_fract_x
 _atom_site_fract_y
 _atom_site_fract_z
 _atom_site_occupancy
  Sr  Sr0  1  0.577049  0.000778  0.155642  1
  Sr  Sr1  1  0.412915  0.001955  0.830476  1
  Sr  Sr2  1  0.079039  0.499019  0.155975  1
  Li  Li3  1  0.501229  0.750576  0.503987  1
  Li  Li4  1  0.002880  0.750433  0.504436  1
  Li  Li5  1  0.501630  0.249263  0.504402  1
  Li  Li6  1  0.002507  0.249433  0.503978  1
  Nb  Nb7  1  0.841284  0.000441  0.684283  1
  Nb  Nb8  1  0.501299  0.497459  0.993717  1
  Nb  Nb9  1  0.656615  0.500646  0.314279  1
  Nb  Nb10  1  0.999319  0.995511  0.993667  1
  Nb  Nb11  1  0.156384  0.000532  0.314074  1
  Nb  Nb12  1  0.341548  0.500676  0.684301  1
  O  O13  1  0.927447  0.997128  0.851076  1
  O  O14  1  0.781884  0.722813  0.008806  1
  O  O15  1  0.899385  0.749751  0.298074  1
  O  O16  1  0.771160  0.999714  0.541677  1
  O  O17  1  0.284453  0.766881  0.005996  1
  O  O18  1  0.900683  0.249931  0.298290  1
  O  O19  1  0.578756  0.496382  0.152621  1
  O  O20  1  0.728814  0.499878  0.457004  1
  O  O21  1  0.591502  0.757002  0.697431  1
  O  O22  1  0.399266  0.748475  0.298269  1
  O  O23  1  0.080270  0.997951  0.152623  1
  O  O24  1  0.228635  0.999720  0.456832  1
  O  O25  1  0.736524  0.218904  0.006016  1
  O  O26  1  0.254203  0.249694  0.007288  1
  O  O27  1  0.400159  0.249228  0.298483  1
  O  O28  1  0.105300  0.756259  0.697036  1
  O  O29  1  0.428354  0.498067  0.851092  1
  O  O30  1  0.591944  0.242896  0.696994  1
  O  O31  1  0.271041  0.499615  0.541690  1
  O  O32  1  0.105694  0.242889  0.697627  1
