# generated using pymatgen
data_La2WO6
_symmetry_space_group_name_H-M   'P 1'
_cell_length_a   5.52686006
_cell_length_b   9.54162249
_cell_length_c   10.47634947
_cell_angle_alpha   90.00000000
_cell_angle_beta   90.00000000
_cell_angle_gamma   90.00000000
_symmetry_Int_Tables_number   1
_chemical_formula_structural   La2WO6
_chemical_formula_sum   'La8 W4 O24'
_cell_volume   552.47251288
_cell_formula_units_Z   4
loop_
 _symmetry_equiv_pos_site_id
 _symmetry_equiv_pos_as_xyz
  1  'x, y, z'
loop_
 _atom_site_type_symbol
 _atom_site_label
 _atom_site_symmetry_multiplicity
 _atom_site_fract_x
 _atom_site_fract_y
 _atom_site_fract_z
 _atom_site_occupancy
  La  La0  1  0.023312  0.395460  0.035688  1
  La  La1  1  0.031512  0.281370  0.632742  1
  La  La2  1  0.468488  0.718630  0.132742  1
  La  La3  1  0.476688  0.604540  0.535688  1
  La  La4  1  0.523312  0.104540  0.964312  1
  La  La5  1  0.531512  0.218630  0.367258  1
  La  La6  1  0.968488  0.781370  0.867258  1
  La  La7  1  0.976688  0.895460  0.464312  1
  W  W8  1  0.040457  0.002674  0.150024  1
  W  W9  1  0.459543  0.997326  0.650024  1
  W  W10  1  0.540457  0.497326  0.849976  1
  W  W11  1  0.959543  0.502674  0.349976  1
  O  O12  1  0.075540  0.650026  0.467912  1
  O  O13  1  0.167260  0.548372  0.210640  1
  O  O14  1  0.195896  0.865792  0.679366  1
  O  O15  1  0.186685  0.864778  0.259921  1
  O  O16  1  0.221383  0.389068  0.430586  1
  O  O17  1  0.255178  0.088239  0.512196  1
  O  O18  1  0.244822  0.911761  0.012196  1
  O  O19  1  0.278617  0.610932  0.930586  1
  O  O20  1  0.313315  0.135222  0.759921  1
  O  O21  1  0.304104  0.134208  0.179366  1
  O  O22  1  0.332740  0.451628  0.710640  1
  O  O23  1  0.424460  0.349974  0.967912  1
  O  O24  1  0.575540  0.849974  0.532088  1
  O  O25  1  0.667260  0.951628  0.789360  1
  O  O26  1  0.695896  0.634208  0.320634  1
  O  O27  1  0.686685  0.635222  0.740079  1
  O  O28  1  0.721383  0.110932  0.569414  1
  O  O29  1  0.755178  0.411761  0.487804  1
  O  O30  1  0.744822  0.588239  0.987804  1
  O  O31  1  0.778617  0.889068  0.069414  1
  O  O32  1  0.813315  0.364778  0.240079  1
  O  O33  1  0.804104  0.365792  0.820634  1
  O  O34  1  0.832740  0.048372  0.289360  1
  O  O35  1  0.924460  0.150026  0.032088  1
