# generated using pymatgen
data_Li2V3TeO8
_symmetry_space_group_name_H-M   'P 1'
_cell_length_a   6.23919937
_cell_length_b   6.23919937
_cell_length_c   6.23919937
_cell_angle_alpha   57.93586112
_cell_angle_beta   57.93586112
_cell_angle_gamma   57.93586112
_symmetry_Int_Tables_number   1
_chemical_formula_structural   Li2V3TeO8
_chemical_formula_sum   'Li2 V3 Te1 O8'
_cell_volume   163.60553194
_cell_formula_units_Z   1
loop_
 _symmetry_equiv_pos_site_id
 _symmetry_equiv_pos_as_xyz
  1  'x, y, z'
loop_
 _atom_site_type_symbol
 _atom_site_label
 _atom_site_symmetry_multiplicity
 _atom_site_fract_x
 _atom_site_fract_y
 _atom_site_fract_z
 _atom_site_occupancy
  Li  Li0  1  0.872963  0.872963  0.872963  1
  Li  Li1  1  0.127037  0.127037  0.127037  1
  V  V2  1  0.500000  0.500000  0.000000  1
  V  V3  1  0.000000  0.500000  0.500000  1
  V  V4  1  0.500000  0.000000  0.500000  1
  Te  Te5  1  0.500000  0.500000  0.500000  1
  O  O6  1  0.734130  0.734130  0.734130  1
  O  O7  1  0.741666  0.282346  0.741666  1
  O  O8  1  0.282346  0.741666  0.741666  1
  O  O9  1  0.741666  0.741666  0.282346  1
  O  O10  1  0.258334  0.258334  0.717654  1
  O  O11  1  0.717654  0.258334  0.258334  1
  O  O12  1  0.258334  0.717654  0.258334  1
  O  O13  1  0.265870  0.265870  0.265870  1
