# generated using pymatgen
data_Li2V3CuO8
_symmetry_space_group_name_H-M   'P 1'
_cell_length_a   5.91974464
_cell_length_b   5.91974464
_cell_length_c   5.91974464
_cell_angle_alpha   59.61655312
_cell_angle_beta   59.61655312
_cell_angle_gamma   59.61655312
_symmetry_Int_Tables_number   1
_chemical_formula_structural   Li2V3CuO8
_chemical_formula_sum   'Li2 V3 Cu1 O8'
_cell_volume   145.40947590
_cell_formula_units_Z   1
loop_
 _symmetry_equiv_pos_site_id
 _symmetry_equiv_pos_as_xyz
  1  'x, y, z'
loop_
 _atom_site_type_symbol
 _atom_site_label
 _atom_site_symmetry_multiplicity
 _atom_site_fract_x
 _atom_site_fract_y
 _atom_site_fract_z
 _atom_site_occupancy
  Li  Li0  1  0.878253  0.878253  0.878253  1
  Li  Li1  1  0.500097  0.500097  0.500097  1
  V  V2  1  0.501166  0.501166  0.994920  1
  V  V3  1  0.994920  0.501166  0.501166  1
  V  V4  1  0.501166  0.994920  0.501166  1
  Cu  Cu5  1  0.122882  0.122882  0.122882  1
  O  O6  1  0.740353  0.740353  0.740353  1
  O  O7  1  0.751234  0.289568  0.751234  1
  O  O8  1  0.289568  0.751234  0.751234  1
  O  O9  1  0.751234  0.751234  0.289568  1
  O  O10  1  0.250071  0.250071  0.710556  1
  O  O11  1  0.710556  0.250071  0.250071  1
  O  O12  1  0.250071  0.710556  0.250071  1
  O  O13  1  0.258426  0.258426  0.258426  1
