# generated using pymatgen
data_Li3Cu3TeO8
_symmetry_space_group_name_H-M   'P 1'
_cell_length_a   6.03094805
_cell_length_b   6.03094805
_cell_length_c   6.03094805
_cell_angle_alpha   60.29261848
_cell_angle_beta   60.29261848
_cell_angle_gamma   60.29261848
_symmetry_Int_Tables_number   1
_chemical_formula_structural   Li3Cu3TeO8
_chemical_formula_sum   'Li3 Cu3 Te1 O8'
_cell_volume   156.13785249
_cell_formula_units_Z   1
loop_
 _symmetry_equiv_pos_site_id
 _symmetry_equiv_pos_as_xyz
  1  'x, y, z'
loop_
 _atom_site_type_symbol
 _atom_site_label
 _atom_site_symmetry_multiplicity
 _atom_site_fract_x
 _atom_site_fract_y
 _atom_site_fract_z
 _atom_site_occupancy
  Li  Li0  1  0.000000  0.500000  0.000000  1
  Li  Li1  1  1.000000  0.000000  0.500000  1
  Li  Li2  1  0.500000  0.000000  0.000000  1
  Cu  Cu3  1  0.500000  0.000000  0.500000  1
  Cu  Cu4  1  0.500000  0.500000  0.000000  1
  Cu  Cu5  1  0.000000  0.500000  0.500000  1
  Te  Te6  1  0.000000  0.000000  0.000000  1
  O  O7  1  0.268340  0.268340  0.268340  1
  O  O8  1  0.772109  0.223759  0.772109  1
  O  O9  1  0.772109  0.772109  0.223759  1
  O  O10  1  0.731660  0.731660  0.731660  1
  O  O11  1  0.223759  0.772109  0.772109  1
  O  O12  1  0.227891  0.776241  0.227891  1
  O  O13  1  0.227891  0.227891  0.776241  1
  O  O14  1  0.776241  0.227891  0.227891  1
