# generated using pymatgen
data_Li2V3SnO8
_symmetry_space_group_name_H-M   'P 1'
_cell_length_a   8.56883659
_cell_length_b   8.58529227
_cell_length_c   8.58893766
_cell_angle_alpha   90.00000000
_cell_angle_beta   90.00000000
_cell_angle_gamma   90.00000000
_symmetry_Int_Tables_number   1
_chemical_formula_structural   Li2V3SnO8
_chemical_formula_sum   'Li8 V12 Sn4 O32'
_cell_volume   631.85350051
_cell_formula_units_Z   4
loop_
 _symmetry_equiv_pos_site_id
 _symmetry_equiv_pos_as_xyz
  1  'x, y, z'
loop_
 _atom_site_type_symbol
 _atom_site_label
 _atom_site_symmetry_multiplicity
 _atom_site_fract_x
 _atom_site_fract_y
 _atom_site_fract_z
 _atom_site_occupancy
  Li  Li0  1  0.874611  0.374690  0.625588  1
  Li  Li1  1  0.998637  0.996777  0.498147  1
  Li  Li2  1  0.001363  0.496777  0.001853  1
  Li  Li3  1  0.125389  0.874690  0.874412  1
  Li  Li4  1  0.374611  0.125310  0.374412  1
  Li  Li5  1  0.498637  0.503223  0.501853  1
  Li  Li6  1  0.501363  0.003223  0.998147  1
  Li  Li7  1  0.625389  0.625310  0.125588  1
  V  V8  1  0.863264  0.625597  0.372438  1
  V  V9  1  0.864371  0.858681  0.128428  1
  V  V10  1  0.874470  0.131047  0.867583  1
  V  V11  1  0.125530  0.631047  0.632417  1
  V  V12  1  0.135629  0.358681  0.371572  1
  V  V13  1  0.136736  0.125597  0.127562  1
  V  V14  1  0.363264  0.874403  0.627562  1
  V  V15  1  0.364371  0.641319  0.871572  1
  V  V16  1  0.374470  0.368953  0.132417  1
  V  V17  1  0.625530  0.868953  0.367583  1
  V  V18  1  0.635629  0.141319  0.628428  1
  V  V19  1  0.636736  0.374403  0.872438  1
  Sn  Sn20  1  0.754610  0.246973  0.248823  1
  Sn  Sn21  1  0.245390  0.746973  0.251177  1
  Sn  Sn22  1  0.254610  0.253027  0.751177  1
  Sn  Sn23  1  0.745390  0.753027  0.748823  1
  O  O24  1  0.861103  0.357357  0.875229  1
  O  O25  1  0.849814  0.118130  0.635148  1
  O  O26  1  0.864018  0.865127  0.356066  1
  O  O27  1  0.880975  0.646851  0.137410  1
  O  O28  1  0.875538  0.884617  0.890448  1
  O  O29  1  0.889821  0.109354  0.113494  1
  O  O30  1  0.890886  0.383962  0.377600  1
  O  O31  1  0.883342  0.621350  0.615702  1
  O  O32  1  0.116658  0.121350  0.884298  1
  O  O33  1  0.109114  0.883962  0.122400  1
  O  O34  1  0.110179  0.609354  0.386506  1
  O  O35  1  0.124462  0.384617  0.609552  1
  O  O36  1  0.119025  0.146851  0.362590  1
  O  O37  1  0.135982  0.365127  0.143934  1
  O  O38  1  0.150186  0.618130  0.864852  1
  O  O39  1  0.138897  0.857357  0.624771  1
  O  O40  1  0.361103  0.142643  0.124771  1
  O  O41  1  0.349814  0.381870  0.364852  1
  O  O42  1  0.364018  0.634873  0.643934  1
  O  O43  1  0.380975  0.853149  0.862590  1
  O  O44  1  0.375538  0.615383  0.109552  1
  O  O45  1  0.389821  0.390646  0.886506  1
  O  O46  1  0.390886  0.116038  0.622400  1
  O  O47  1  0.383342  0.878650  0.384298  1
  O  O48  1  0.616658  0.378650  0.115702  1
  O  O49  1  0.609114  0.616038  0.877600  1
  O  O50  1  0.610179  0.890646  0.613494  1
  O  O51  1  0.624462  0.115383  0.390448  1
  O  O52  1  0.619025  0.353149  0.637410  1
  O  O53  1  0.635982  0.134873  0.856066  1
  O  O54  1  0.650186  0.881870  0.135148  1
  O  O55  1  0.638897  0.642643  0.375229  1
