# generated using pymatgen
data_Li4Fe2O5
_symmetry_space_group_name_H-M   'P 1'
_cell_length_a   7.76355145
_cell_length_b   5.59099856
_cell_length_c   12.09723823
_cell_angle_alpha   90.00000000
_cell_angle_beta   115.10855154
_cell_angle_gamma   90.00000000
_symmetry_Int_Tables_number   1
_chemical_formula_structural   Li4Fe2O5
_chemical_formula_sum   'Li16 Fe8 O20'
_cell_volume   475.47439052
_cell_formula_units_Z   4
loop_
 _symmetry_equiv_pos_site_id
 _symmetry_equiv_pos_as_xyz
  1  'x, y, z'
loop_
 _atom_site_type_symbol
 _atom_site_label
 _atom_site_symmetry_multiplicity
 _atom_site_fract_x
 _atom_site_fract_y
 _atom_site_fract_z
 _atom_site_occupancy
  Li  Li0  1  0.169903  0.936831  0.012891  1
  Li  Li1  1  0.699434  0.549189  0.020068  1
  Li  Li2  1  0.576409  0.106814  0.102723  1
  Li  Li3  1  0.142665  0.432720  0.115046  1
  Li  Li4  1  0.423591  0.606814  0.397277  1
  Li  Li5  1  0.857335  0.932720  0.384954  1
  Li  Li6  1  0.830097  0.436831  0.487109  1
  Li  Li7  1  0.699434  0.950811  0.520068  1
  Li  Li8  1  0.300566  0.049189  0.479932  1
  Li  Li9  1  0.169903  0.563169  0.512891  1
  Li  Li10  1  0.142665  0.067280  0.615046  1
  Li  Li11  1  0.576409  0.393186  0.602723  1
  Li  Li12  1  0.857335  0.567280  0.884954  1
  Li  Li13  1  0.423591  0.893186  0.897277  1
  Li  Li14  1  0.300566  0.450811  0.979932  1
  Li  Li15  1  0.830097  0.063169  0.987109  1
  Fe  Fe16  1  0.559597  0.628635  0.198876  1
  Fe  Fe17  1  0.440403  0.128635  0.301124  1
  Fe  Fe18  1  0.004283  0.783040  0.205429  1
  Fe  Fe19  1  0.995717  0.283040  0.294571  1
  Fe  Fe20  1  0.004283  0.716960  0.705429  1
  Fe  Fe21  1  0.995717  0.216960  0.794571  1
  Fe  Fe22  1  0.559597  0.871365  0.698876  1
  Fe  Fe23  1  0.440403  0.371365  0.801124  1
  O  O24  1  0.418679  0.779958  0.049892  1
  O  O25  1  0.419743  0.321112  0.162382  1
  O  O26  1  0.973133  0.747938  0.041392  1
  O  O27  1  0.826156  0.019620  0.214543  1
  O  O28  1  0.798448  0.533141  0.200749  1
  O  O29  1  0.580257  0.821112  0.337618  1
  O  O30  1  0.201552  0.033141  0.299251  1
  O  O31  1  0.173844  0.519620  0.285457  1
  O  O32  1  0.581321  0.279958  0.450108  1
  O  O33  1  0.026867  0.247938  0.458608  1
  O  O34  1  0.973133  0.752062  0.541392  1
  O  O35  1  0.418679  0.720042  0.549892  1
  O  O36  1  0.826156  0.480380  0.714543  1
  O  O37  1  0.798448  0.966859  0.700749  1
  O  O38  1  0.419743  0.178888  0.662382  1
  O  O39  1  0.201552  0.466859  0.799251  1
  O  O40  1  0.173844  0.980380  0.785457  1
  O  O41  1  0.026867  0.252062  0.958608  1
  O  O42  1  0.580257  0.678888  0.837618  1
  O  O43  1  0.581321  0.220042  0.950108  1
