# generated using pymatgen
data_BaYCl5
_symmetry_space_group_name_H-M   'P 1'
_cell_length_a   10.07486554
_cell_length_b   10.07486554
_cell_length_c   6.88046576
_cell_angle_alpha   89.12013144
_cell_angle_beta   90.87986856
_cell_angle_gamma   32.15474975
_symmetry_Int_Tables_number   1
_chemical_formula_structural   BaYCl5
_chemical_formula_sum   'Ba2 Y2 Cl10'
_cell_volume   371.11534857
_cell_formula_units_Z   2
loop_
 _symmetry_equiv_pos_site_id
 _symmetry_equiv_pos_as_xyz
  1  'x, y, z'
loop_
 _atom_site_type_symbol
 _atom_site_label
 _atom_site_symmetry_multiplicity
 _atom_site_fract_x
 _atom_site_fract_y
 _atom_site_fract_z
 _atom_site_occupancy
  Ba  Ba0  1  0.328318  0.328318  0.250000  1
  Ba  Ba1  1  0.671682  0.671682  0.750000  1
  Y  Y2  1  0.076232  0.076232  0.250000  1
  Y  Y3  1  0.923768  0.923768  0.750000  1
  Cl  Cl4  1  0.727284  0.209502  0.404611  1
  Cl  Cl5  1  0.790498  0.272716  0.904611  1
  Cl  Cl6  1  0.805496  0.820290  0.000142  1
  Cl  Cl7  1  0.626717  0.626717  0.250000  1
  Cl  Cl8  1  0.820290  0.805496  0.499858  1
  Cl  Cl9  1  0.179710  0.194504  0.500142  1
  Cl  Cl10  1  0.373283  0.373283  0.750000  1
  Cl  Cl11  1  0.194504  0.179710  0.999858  1
  Cl  Cl12  1  0.209502  0.727284  0.095389  1
  Cl  Cl13  1  0.272716  0.790498  0.595389  1
