# generated using pymatgen
data_Li2Co(CO3)2
_symmetry_space_group_name_H-M   'P 1'
_cell_length_a   5.20234547
_cell_length_b   6.57831644
_cell_length_c   7.84871077
_cell_angle_alpha   90.85076398
_cell_angle_beta   90.62971821
_cell_angle_gamma   112.89479420
_symmetry_Int_Tables_number   1
_chemical_formula_structural   Li2Co(CO3)2
_chemical_formula_sum   'Li4 Co2 C4 O12'
_cell_volume   247.37519469
_cell_formula_units_Z   2
loop_
 _symmetry_equiv_pos_site_id
 _symmetry_equiv_pos_as_xyz
  1  'x, y, z'
loop_
 _atom_site_type_symbol
 _atom_site_label
 _atom_site_symmetry_multiplicity
 _atom_site_fract_x
 _atom_site_fract_y
 _atom_site_fract_z
 _atom_site_occupancy
  Li  Li0  1  0.713381  0.080546  0.598408  1
  Li  Li1  1  0.661275  0.248942  0.081513  1
  Li  Li2  1  0.147159  0.748628  0.418615  1
  Li  Li3  1  0.346874  0.750576  0.919600  1
  Co  Co4  1  0.002296  0.994552  0.005994  1
  Co  Co5  1  0.500573  0.499463  0.500456  1
  C  C6  1  0.268249  0.123666  0.736091  1
  C  C7  1  0.226149  0.374579  0.232889  1
  C  C8  1  0.791211  0.641999  0.760752  1
  C  C9  1  0.713939  0.879284  0.268791  1
  O  O10  1  0.013341  0.103484  0.754719  1
  O  O11  1  0.394139  0.082983  0.869255  1
  O  O12  1  0.394238  0.172922  0.592194  1
  O  O13  1  0.072654  0.308751  0.096464  1
  O  O14  1  0.133501  0.441349  0.367229  1
  O  O15  1  0.477442  0.379213  0.243633  1
  O  O16  1  0.536832  0.633381  0.754138  1
  O  O17  1  0.890153  0.599821  0.618912  1
  O  O18  1  0.580672  0.844997  0.411519  1
  O  O19  1  0.935701  0.685247  0.901438  1
  O  O20  1  0.602350  0.914722  0.128055  1
  O  O21  1  0.964528  0.884842  0.259757  1
