# generated using pymatgen
data_Li2Cr3FeO8
_symmetry_space_group_name_H-M   'P 1'
_cell_length_a   5.87331279
_cell_length_b   5.87331279
_cell_length_c   5.96412931
_cell_angle_alpha   60.68176706
_cell_angle_beta   119.31823294
_cell_angle_gamma   120.17407705
_symmetry_Int_Tables_number   1
_chemical_formula_structural   Li2Cr3FeO8
_chemical_formula_sum   'Li2 Cr3 Fe1 O8'
_cell_volume   146.76132147
_cell_formula_units_Z   1
loop_
 _symmetry_equiv_pos_site_id
 _symmetry_equiv_pos_as_xyz
  1  'x, y, z'
loop_
 _atom_site_type_symbol
 _atom_site_label
 _atom_site_symmetry_multiplicity
 _atom_site_fract_x
 _atom_site_fract_y
 _atom_site_fract_z
 _atom_site_occupancy
  Li  Li0  1  0.500000  1.000000  0.000000  1
  Li  Li1  1  1.000000  0.500000  0.000000  1
  Cr  Cr2  1  0.500000  1.000000  0.500000  1
  Cr  Cr3  1  1.000000  0.500000  0.500000  1
  Cr  Cr4  1  0.500000  0.500000  0.500000  1
  Fe  Fe5  1  0.000000  1.000000  0.500000  1
  O  O6  1  0.770446  0.229554  0.287528  1
  O  O7  1  0.759340  0.742119  0.296983  1
  O  O8  1  0.257881  0.240660  0.296983  1
  O  O9  1  0.271845  0.728155  0.289330  1
  O  O10  1  0.728155  0.271845  0.710670  1
  O  O11  1  0.742119  0.759340  0.703017  1
  O  O12  1  0.240660  0.257881  0.703017  1
  O  O13  1  0.229554  0.770446  0.712472  1
