# generated using pymatgen
data_Li3Fe4(BO3)4
_symmetry_space_group_name_H-M   'P 1'
_cell_length_a   5.24686335
_cell_length_b   5.25396062
_cell_length_c   20.27961697
_cell_angle_alpha   89.98070411
_cell_angle_beta   91.39106019
_cell_angle_gamma   119.83720812
_symmetry_Int_Tables_number   1
_chemical_formula_structural   Li3Fe4(BO3)4
_chemical_formula_sum   'Li6 Fe8 B8 O24'
_cell_volume   484.75154932
_cell_formula_units_Z   2
loop_
 _symmetry_equiv_pos_site_id
 _symmetry_equiv_pos_as_xyz
  1  'x, y, z'
loop_
 _atom_site_type_symbol
 _atom_site_label
 _atom_site_symmetry_multiplicity
 _atom_site_fract_x
 _atom_site_fract_y
 _atom_site_fract_z
 _atom_site_occupancy
  Li  Li0  1  0.324899  0.343430  0.918871  1
  Li  Li1  1  0.347163  0.326082  0.169621  1
  Li  Li2  1  0.329728  0.352051  0.418785  1
  Li  Li3  1  0.658396  0.649502  0.790267  1
  Li  Li4  1  0.658948  0.661608  0.546440  1
  Li  Li5  1  0.656859  0.668495  0.047695  1
  Fe  Fe6  1  0.323462  0.998472  0.808981  1
  Fe  Fe7  1  0.324921  0.987973  0.308403  1
  Fe  Fe8  1  0.992334  0.673744  0.935121  1
  Fe  Fe9  1  0.996167  0.683717  0.434559  1
  Fe  Fe10  1  0.010628  0.323792  0.560841  1
  Fe  Fe11  1  0.993786  0.324322  0.059536  1
  Fe  Fe12  1  0.670220  0.007538  0.682375  1
  Fe  Fe13  1  0.678989  0.991354  0.186834  1
  B  B14  1  0.662393  0.000943  0.936404  1
  B  B15  1  0.666976  0.007828  0.436201  1
  B  B16  1  0.995376  0.333166  0.810185  1
  B  B17  1  0.992876  0.328334  0.312727  1
  B  B18  1  0.000644  0.666813  0.685882  1
  B  B19  1  0.999918  0.658273  0.185955  1
  B  B20  1  0.332904  0.995289  0.560949  1
  B  B21  1  0.328604  0.996867  0.061568  1
  O  O22  1  0.746435  0.073034  0.787378  1
  O  O23  1  0.724820  0.097224  0.291017  1
  O  O24  1  0.930389  0.254506  0.950823  1
  O  O25  1  0.415292  0.019122  0.916633  1
  O  O26  1  0.928837  0.262721  0.452540  1
  O  O27  1  0.421667  0.026534  0.413477  1
  O  O28  1  0.968496  0.577385  0.825495  1
  O  O29  1  0.355993  0.265240  0.557673  1
  O  O30  1  0.018181  0.597616  0.328967  1
  O  O31  1  0.342641  0.266711  0.067614  1
  O  O32  1  0.264430  0.346491  0.818493  1
  O  O33  1  0.233819  0.292456  0.320494  1
  O  O34  1  0.754616  0.695221  0.690184  1
  O  O35  1  0.734655  0.647488  0.181473  1
  O  O36  1  0.641379  0.727746  0.942820  1
  O  O37  1  0.976845  0.402377  0.666480  1
  O  O38  1  0.644847  0.736062  0.444588  1
  O  O39  1  0.027524  0.416607  0.169092  1
  O  O40  1  0.580588  0.969193  0.581605  1
  O  O41  1  0.579471  0.978641  0.077238  1
  O  O42  1  0.073343  0.740920  0.542804  1
  O  O43  1  0.068066  0.746532  0.041965  1
  O  O44  1  0.274579  0.901454  0.703954  1
  O  O45  1  0.253945  0.923739  0.207471  1
