# generated using pymatgen
data_LiVFeO4
_symmetry_space_group_name_H-M   'P 1'
_cell_length_a   5.95309052
_cell_length_b   5.95309052
_cell_length_c   8.32078677
_cell_angle_alpha   90.00000000
_cell_angle_beta   90.00000000
_cell_angle_gamma   90.00000000
_symmetry_Int_Tables_number   1
_chemical_formula_structural   LiVFeO4
_chemical_formula_sum   'Li4 V4 Fe4 O16'
_cell_volume   294.88274834
_cell_formula_units_Z   4
loop_
 _symmetry_equiv_pos_site_id
 _symmetry_equiv_pos_as_xyz
  1  'x, y, z'
loop_
 _atom_site_type_symbol
 _atom_site_label
 _atom_site_symmetry_multiplicity
 _atom_site_fract_x
 _atom_site_fract_y
 _atom_site_fract_z
 _atom_site_occupancy
  Li  Li0  1  0.500000  0.733227  0.000000  1
  Li  Li1  1  0.500000  0.266773  0.500000  1
  Li  Li2  1  0.733227  0.500000  0.250000  1
  Li  Li3  1  0.266773  0.500000  0.750000  1
  V  V4  1  0.729224  0.000000  0.250000  1
  V  V5  1  0.000000  0.729224  0.000000  1
  V  V6  1  0.000000  0.270776  0.500000  1
  V  V7  1  0.270776  0.000000  0.750000  1
  Fe  Fe8  1  0.756531  0.756531  0.625000  1
  Fe  Fe9  1  0.756531  0.243469  0.875000  1
  Fe  Fe10  1  0.243469  0.756531  0.375000  1
  Fe  Fe11  1  0.243469  0.243469  0.125000  1
  O  O12  1  0.517196  0.768867  0.258776  1
  O  O13  1  0.517196  0.231133  0.241224  1
  O  O14  1  0.768867  0.517196  0.991224  1
  O  O15  1  0.768867  0.482804  0.508776  1
  O  O16  1  0.768100  0.986063  0.015591  1
  O  O17  1  0.768100  0.013937  0.484409  1
  O  O18  1  0.986063  0.768100  0.234409  1
  O  O19  1  0.986063  0.231900  0.265591  1
  O  O20  1  0.013937  0.768100  0.765591  1
  O  O21  1  0.013937  0.231900  0.734409  1
  O  O22  1  0.231900  0.013937  0.515591  1
  O  O23  1  0.231900  0.986063  0.984409  1
  O  O24  1  0.231133  0.517196  0.008776  1
  O  O25  1  0.231133  0.482804  0.491224  1
  O  O26  1  0.482804  0.768867  0.741224  1
  O  O27  1  0.482804  0.231133  0.758776  1
