# generated using pymatgen
data_Ga2WO6
_symmetry_space_group_name_H-M   'P 1'
_cell_length_a   4.65269748
_cell_length_b   4.65269748
_cell_length_c   9.03835198
_cell_angle_alpha   90.00000000
_cell_angle_beta   90.00000000
_cell_angle_gamma   90.00000000
_symmetry_Int_Tables_number   1
_chemical_formula_structural   Ga2WO6
_chemical_formula_sum   'Ga4 W2 O12'
_cell_volume   195.65857223
_cell_formula_units_Z   2
loop_
 _symmetry_equiv_pos_site_id
 _symmetry_equiv_pos_as_xyz
  1  'x, y, z'
loop_
 _atom_site_type_symbol
 _atom_site_label
 _atom_site_symmetry_multiplicity
 _atom_site_fract_x
 _atom_site_fract_y
 _atom_site_fract_z
 _atom_site_occupancy
  Ga  Ga0  1  0.500000  0.500000  0.336485  1
  Ga  Ga1  1  0.500000  0.500000  0.663515  1
  Ga  Ga2  1  0.000000  0.000000  0.163515  1
  Ga  Ga3  1  0.000000  0.000000  0.836485  1
  W  W4  1  0.500000  0.500000  0.000000  1
  W  W5  1  0.000000  0.000000  0.500000  1
  O  O6  1  0.695641  0.695641  0.161320  1
  O  O7  1  0.695641  0.695641  0.838680  1
  O  O8  1  0.700449  0.700449  0.500000  1
  O  O9  1  0.799551  0.200449  0.000000  1
  O  O10  1  0.804359  0.195641  0.338680  1
  O  O11  1  0.804359  0.195641  0.661320  1
  O  O12  1  0.195641  0.804359  0.338680  1
  O  O13  1  0.195641  0.804359  0.661320  1
  O  O14  1  0.200449  0.799551  0.000000  1
  O  O15  1  0.299551  0.299551  0.500000  1
  O  O16  1  0.304359  0.304359  0.161320  1
  O  O17  1  0.304359  0.304359  0.838680  1
