# generated using pymatgen
data_Cu6OF11
_symmetry_space_group_name_H-M   'P 1'
_cell_length_a   4.64432659
_cell_length_b   5.43483819
_cell_length_c   8.45641739
_cell_angle_alpha   87.17741808
_cell_angle_beta   88.32340741
_cell_angle_gamma   89.39393930
_symmetry_Int_Tables_number   1
_chemical_formula_structural   Cu6OF11
_chemical_formula_sum   'Cu6 O1 F11'
_cell_volume   213.09066618
_cell_formula_units_Z   1
loop_
 _symmetry_equiv_pos_site_id
 _symmetry_equiv_pos_as_xyz
  1  'x, y, z'
loop_
 _atom_site_type_symbol
 _atom_site_label
 _atom_site_symmetry_multiplicity
 _atom_site_fract_x
 _atom_site_fract_y
 _atom_site_fract_z
 _atom_site_occupancy
  Cu  Cu0  1  0.002876  0.999101  0.001204  1
  Cu  Cu1  1  0.522957  0.499081  0.981434  1
  Cu  Cu2  1  0.987668  0.342538  0.674165  1
  Cu  Cu3  1  0.511623  0.817969  0.669438  1
  Cu  Cu4  1  0.495445  0.168791  0.335170  1
  Cu  Cu5  1  0.998824  0.666016  0.330705  1
  O  O6  1  0.699784  0.541547  0.760916  1
  F  F7  1  0.202383  0.290466  0.915107  1
  F  F8  1  0.792882  0.047626  0.752993  1
  F  F9  1  0.299688  0.797397  0.906959  1
  F  F10  1  0.291295  0.123627  0.584249  1
  F  F11  1  0.194962  0.621681  0.580669  1
  F  F12  1  0.795374  0.374897  0.417525  1
  F  F13  1  0.696676  0.873134  0.426749  1
  F  F14  1  0.303740  0.461510  0.236484  1
  F  F15  1  0.702003  0.205400  0.089920  1
  F  F16  1  0.202740  0.960539  0.246292  1
  F  F17  1  0.799078  0.708679  0.090021  1
