# generated using pymatgen
data_Li2(FeO2)3
_symmetry_space_group_name_H-M   'P 1'
_cell_length_a   4.98791850
_cell_length_b   4.98791850
_cell_length_c   5.13666962
_cell_angle_alpha   81.02945049
_cell_angle_beta   98.97054951
_cell_angle_gamma   59.72122435
_symmetry_Int_Tables_number   1
_chemical_formula_structural   Li2(FeO2)3
_chemical_formula_sum   'Li2 Fe3 O6'
_cell_volume   104.81141782
_cell_formula_units_Z   1
loop_
 _symmetry_equiv_pos_site_id
 _symmetry_equiv_pos_as_xyz
  1  'x, y, z'
loop_
 _atom_site_type_symbol
 _atom_site_label
 _atom_site_symmetry_multiplicity
 _atom_site_fract_x
 _atom_site_fract_y
 _atom_site_fract_z
 _atom_site_occupancy
  Li  Li0  1  0.667760  0.667760  0.000000  1
  Li  Li1  1  0.332240  0.332240  0.000000  1
  Fe  Fe2  1  0.834757  0.834757  0.500000  1
  Fe  Fe3  1  0.500000  0.500000  0.500000  1
  Fe  Fe4  1  0.165243  0.165243  0.500000  1
  O  O5  1  0.748292  0.251708  0.288142  1
  O  O6  1  0.440588  0.897799  0.289855  1
  O  O7  1  0.102201  0.559412  0.289855  1
  O  O8  1  0.897799  0.440588  0.710145  1
  O  O9  1  0.559412  0.102201  0.710145  1
  O  O10  1  0.251708  0.748292  0.711858  1
