# generated using pymatgen
data_Mn2O3F
_symmetry_space_group_name_H-M   'P 1'
_cell_length_a   4.58375104
_cell_length_b   4.58375104
_cell_length_c   9.05402309
_cell_angle_alpha   90.00000000
_cell_angle_beta   90.00000000
_cell_angle_gamma   92.67839855
_symmetry_Int_Tables_number   1
_chemical_formula_structural   Mn2O3F
_chemical_formula_sum   'Mn6 O9 F3'
_cell_volume   190.02421334
_cell_formula_units_Z   3
loop_
 _symmetry_equiv_pos_site_id
 _symmetry_equiv_pos_as_xyz
  1  'x, y, z'
loop_
 _atom_site_type_symbol
 _atom_site_label
 _atom_site_symmetry_multiplicity
 _atom_site_fract_x
 _atom_site_fract_y
 _atom_site_fract_z
 _atom_site_occupancy
  Mn  Mn0  1  0.999178  0.000822  0.666721  1
  Mn  Mn1  1  0.999178  0.000822  0.333279  1
  Mn  Mn2  1  0.986907  0.013093  0.000000  1
  Mn  Mn3  1  0.519070  0.480930  0.832728  1
  Mn  Mn4  1  0.474618  0.525382  0.500000  1
  Mn  Mn5  1  0.519070  0.480930  0.167272  1
  O  O6  1  0.808911  0.191089  0.167990  1
  O  O7  1  0.808911  0.191089  0.832010  1
  O  O8  1  0.303291  0.313418  0.667261  1
  O  O9  1  0.303291  0.313418  0.332739  1
  O  O10  1  0.315767  0.293955  0.000000  1
  O  O11  1  0.686582  0.696709  0.667261  1
  O  O12  1  0.686582  0.696709  0.332739  1
  O  O13  1  0.706045  0.684234  0.000000  1
  O  O14  1  0.186384  0.813616  0.500000  1
  F  F15  1  0.778174  0.221826  0.500000  1
  F  F16  1  0.209021  0.790979  0.157466  1
  F  F17  1  0.209021  0.790979  0.842534  1
