# generated using pymatgen
data_CrH6SO7
_symmetry_space_group_name_H-M   'P 1'
_cell_length_a   7.28903261
_cell_length_b   7.28903261
_cell_length_c   7.55281025
_cell_angle_alpha   87.79639502
_cell_angle_beta   92.20360498
_cell_angle_gamma   47.09034657
_symmetry_Int_Tables_number   1
_chemical_formula_structural   CrH6SO7
_chemical_formula_sum   'Cr2 H12 S2 O14'
_cell_volume   292.54468696
_cell_formula_units_Z   2
loop_
 _symmetry_equiv_pos_site_id
 _symmetry_equiv_pos_as_xyz
  1  'x, y, z'
loop_
 _atom_site_type_symbol
 _atom_site_label
 _atom_site_symmetry_multiplicity
 _atom_site_fract_x
 _atom_site_fract_y
 _atom_site_fract_z
 _atom_site_occupancy
  Cr  Cr0  1  0.137606  0.132733  0.507938  1
  Cr  Cr1  1  0.867267  0.862394  0.007938  1
  H  H2  1  0.816762  0.967598  0.648638  1
  H  H3  1  0.032402  0.183238  0.148638  1
  H  H4  1  0.564765  0.049544  0.717193  1
  H  H5  1  0.950456  0.435235  0.217193  1
  H  H6  1  0.108638  0.501057  0.777938  1
  H  H7  1  0.498943  0.891362  0.277938  1
  H  H8  1  0.255708  0.380996  0.972133  1
  H  H9  1  0.619004  0.744292  0.472133  1
  H  H10  1  0.555890  0.276831  0.207604  1
  H  H11  1  0.723169  0.444110  0.707604  1
  H  H12  1  0.581497  0.357026  0.016878  1
  H  H13  1  0.642974  0.418503  0.516878  1
  S  S14  1  0.155141  0.614731  0.425220  1
  S  S15  1  0.385269  0.844859  0.925220  1
  O  O16  1  0.420376  0.463851  0.387227  1
  O  O17  1  0.536149  0.579624  0.887227  1
  O  O18  1  0.006131  0.660902  0.256564  1
  O  O19  1  0.339098  0.993869  0.756564  1
  O  O20  1  0.045487  0.858381  0.492146  1
  O  O21  1  0.141619  0.954513  0.992146  1
  O  O22  1  0.134668  0.473092  0.557704  1
  O  O23  1  0.526908  0.865332  0.057704  1
  O  O24  1  0.967897  0.291839  0.249521  1
  O  O25  1  0.708161  0.032103  0.749521  1
  O  O26  1  0.488728  0.911952  0.408662  1
  O  O27  1  0.088048  0.511272  0.908662  1
  O  O28  1  0.771418  0.409576  0.583134  1
  O  O29  1  0.590424  0.228582  0.083134  1
