# generated using pymatgen
data_Mn5Sb3O16
_symmetry_space_group_name_H-M   'P 1'
_cell_length_a   6.12679762
_cell_length_b   6.12679762
_cell_length_c   9.10700568
_cell_angle_alpha   88.92571883
_cell_angle_beta   91.07428117
_cell_angle_gamma   120.84326621
_symmetry_Int_Tables_number   1
_chemical_formula_structural   Mn5Sb3O16
_chemical_formula_sum   'Mn5 Sb3 O16'
_cell_volume   293.43975813
_cell_formula_units_Z   1
loop_
 _symmetry_equiv_pos_site_id
 _symmetry_equiv_pos_as_xyz
  1  'x, y, z'
loop_
 _atom_site_type_symbol
 _atom_site_label
 _atom_site_symmetry_multiplicity
 _atom_site_fract_x
 _atom_site_fract_y
 _atom_site_fract_z
 _atom_site_occupancy
  Mn  Mn0  1  0.671764  0.328236  0.505237  1
  Mn  Mn1  1  0.830208  0.169792  0.788085  1
  Mn  Mn2  1  0.341558  0.658442  0.015048  1
  Mn  Mn3  1  0.666774  0.834626  0.291224  1
  Mn  Mn4  1  0.165374  0.333226  0.291224  1
  Sb  Sb5  1  0.826324  0.666779  0.790253  1
  Sb  Sb6  1  0.333221  0.173676  0.790253  1
  Sb  Sb7  1  0.168266  0.831734  0.289450  1
  O  O8  1  0.834049  0.660678  0.394676  1
  O  O9  1  0.514060  0.485940  0.660124  1
  O  O10  1  0.654696  0.345304  0.913369  1
  O  O11  1  0.007465  0.992535  0.675527  1
  O  O12  1  0.997232  0.002768  0.186888  1
  O  O13  1  0.339322  0.165951  0.394676  1
  O  O14  1  0.946873  0.479871  0.662569  1
  O  O15  1  0.520129  0.053127  0.662569  1
  O  O16  1  0.168647  0.831353  0.901656  1
  O  O17  1  0.839464  0.160536  0.392178  1
  O  O18  1  0.480741  0.951207  0.160347  1
  O  O19  1  0.048793  0.519259  0.160347  1
  O  O20  1  0.336329  0.663671  0.400627  1
  O  O21  1  0.672133  0.836421  0.896510  1
  O  O22  1  0.473158  0.526842  0.164889  1
  O  O23  1  0.163579  0.327867  0.896510  1
