# generated using pymatgen
data_Li2CrP2O7
_symmetry_space_group_name_H-M   'P 1'
_cell_length_a   5.01498782
_cell_length_b   8.58519601
_cell_length_c   7.23979683
_cell_angle_alpha   90.00000000
_cell_angle_beta   110.18273115
_cell_angle_gamma   90.00000000
_symmetry_Int_Tables_number   1
_chemical_formula_structural   Li2CrP2O7
_chemical_formula_sum   'Li4 Cr2 P4 O14'
_cell_volume   292.56721849
_cell_formula_units_Z   2
loop_
 _symmetry_equiv_pos_site_id
 _symmetry_equiv_pos_as_xyz
  1  'x, y, z'
loop_
 _atom_site_type_symbol
 _atom_site_label
 _atom_site_symmetry_multiplicity
 _atom_site_fract_x
 _atom_site_fract_y
 _atom_site_fract_z
 _atom_site_occupancy
  Li  Li0  1  0.313207  0.830378  0.100118  1
  Li  Li1  1  0.019791  0.650998  0.345227  1
  Li  Li2  1  0.980209  0.150998  0.654773  1
  Li  Li3  1  0.686793  0.330378  0.899882  1
  Cr  Cr4  1  0.984125  0.007328  0.281963  1
  Cr  Cr5  1  0.015875  0.507328  0.718037  1
  P  P6  1  0.378023  0.205281  0.087673  1
  P  P7  1  0.375487  0.320643  0.481579  1
  P  P8  1  0.624513  0.820643  0.518421  1
  P  P9  1  0.621977  0.705281  0.912327  1
  O  O10  1  0.693800  0.180940  0.120251  1
  O  O11  1  0.758135  0.789163  0.108665  1
  O  O12  1  0.219088  0.054530  0.098667  1
  O  O13  1  0.353667  0.328879  0.251691  1
  O  O14  1  0.307881  0.821790  0.386483  1
  O  O15  1  0.236859  0.170238  0.511209  1
  O  O16  1  0.217405  0.467875  0.507518  1
  O  O17  1  0.782595  0.967875  0.492482  1
  O  O18  1  0.763141  0.670238  0.488791  1
  O  O19  1  0.692119  0.321790  0.613517  1
  O  O20  1  0.646333  0.828879  0.748309  1
  O  O21  1  0.780912  0.554530  0.901333  1
  O  O22  1  0.241865  0.289163  0.891335  1
  O  O23  1  0.306200  0.680940  0.879749  1
