# generated using pymatgen
data_Li2CrPO6
_symmetry_space_group_name_H-M   'P 1'
_cell_length_a   4.68842970
_cell_length_b   8.70830121
_cell_length_c   10.27098051
_cell_angle_alpha   90.00000000
_cell_angle_beta   90.00000000
_cell_angle_gamma   90.00000000
_symmetry_Int_Tables_number   1
_chemical_formula_structural   Li2CrPO6
_chemical_formula_sum   'Li8 Cr4 P4 O24'
_cell_volume   419.34624248
_cell_formula_units_Z   4
loop_
 _symmetry_equiv_pos_site_id
 _symmetry_equiv_pos_as_xyz
  1  'x, y, z'
loop_
 _atom_site_type_symbol
 _atom_site_label
 _atom_site_symmetry_multiplicity
 _atom_site_fract_x
 _atom_site_fract_y
 _atom_site_fract_z
 _atom_site_occupancy
  Li  Li0  1  0.022753  0.319040  0.088206  1
  Li  Li1  1  0.537754  0.622433  0.134774  1
  Li  Li2  1  0.037754  0.122433  0.365226  1
  Li  Li3  1  0.522753  0.819040  0.411794  1
  Li  Li4  1  0.477247  0.319040  0.588206  1
  Li  Li5  1  0.962246  0.622433  0.634774  1
  Li  Li6  1  0.462246  0.122433  0.865226  1
  Li  Li7  1  0.977247  0.819040  0.911794  1
  Cr  Cr8  1  0.482421  0.999800  0.113807  1
  Cr  Cr9  1  0.982421  0.499800  0.386193  1
  Cr  Cr10  1  0.017579  0.999800  0.613807  1
  Cr  Cr11  1  0.517579  0.499800  0.886193  1
  P  P12  1  0.085142  0.805732  0.217222  1
  P  P13  1  0.585142  0.305732  0.282778  1
  P  P14  1  0.414858  0.805732  0.717222  1
  P  P15  1  0.914858  0.305732  0.782778  1
  O  O16  1  0.294549  0.469181  0.006845  1
  O  O17  1  0.247517  0.125387  0.055401  1
  O  O18  1  0.229518  0.811352  0.078807  1
  O  O19  1  0.742176  0.443415  0.215371  1
  O  O20  1  0.760564  0.815910  0.216759  1
  O  O21  1  0.690599  0.153591  0.218314  1
  O  O22  1  0.190599  0.653591  0.281686  1
  O  O23  1  0.260564  0.315910  0.283241  1
  O  O24  1  0.242176  0.943415  0.284629  1
  O  O25  1  0.729518  0.311352  0.421193  1
  O  O26  1  0.747517  0.625387  0.444599  1
  O  O27  1  0.794549  0.969181  0.493155  1
  O  O28  1  0.205451  0.469181  0.506845  1
  O  O29  1  0.252483  0.125387  0.555401  1
  O  O30  1  0.270482  0.811352  0.578807  1
  O  O31  1  0.757824  0.443415  0.715371  1
  O  O32  1  0.739436  0.815910  0.716759  1
  O  O33  1  0.809401  0.153591  0.718314  1
  O  O34  1  0.309401  0.653591  0.781686  1
  O  O35  1  0.239436  0.315910  0.783241  1
  O  O36  1  0.257824  0.943415  0.784629  1
  O  O37  1  0.770482  0.311352  0.921193  1
  O  O38  1  0.752483  0.625387  0.944599  1
  O  O39  1  0.705451  0.969181  0.993155  1
