# generated using pymatgen
data_Li5Fe5(NiO6)2
_symmetry_space_group_name_H-M   'P 1'
_cell_length_a   5.15512872
_cell_length_b   5.15512872
_cell_length_c   9.84090971
_cell_angle_alpha   84.99596183
_cell_angle_beta   95.00403817
_cell_angle_gamma   60.26075925
_symmetry_Int_Tables_number   1
_chemical_formula_structural   Li5Fe5(NiO6)2
_chemical_formula_sum   'Li5 Fe5 Ni2 O12'
_cell_volume   223.62597345
_cell_formula_units_Z   1
loop_
 _symmetry_equiv_pos_site_id
 _symmetry_equiv_pos_as_xyz
  1  'x, y, z'
loop_
 _atom_site_type_symbol
 _atom_site_label
 _atom_site_symmetry_multiplicity
 _atom_site_fract_x
 _atom_site_fract_y
 _atom_site_fract_z
 _atom_site_occupancy
  Li  Li0  1  0.832308  0.340204  0.739896  1
  Li  Li1  1  0.682033  0.152807  0.261739  1
  Li  Li2  1  0.340204  0.832308  0.260104  1
  Li  Li3  1  0.152807  0.682033  0.738261  1
  Li  Li4  1  0.080450  0.080450  0.500000  1
  Fe  Fe5  1  0.916606  0.916606  0.000000  1
  Fe  Fe6  1  0.004956  0.484468  0.263146  1
  Fe  Fe7  1  0.484468  0.004956  0.736854  1
  Fe  Fe8  1  0.579413  0.579413  0.000000  1
  Fe  Fe9  1  0.423789  0.423789  0.500000  1
  Ni  Ni10  1  0.750394  0.750394  0.500000  1
  Ni  Ni11  1  0.248474  0.248474  0.000000  1
  O  O12  1  0.052019  0.765401  0.375358  1
  O  O13  1  0.765401  0.052019  0.624642  1
  O  O14  1  0.851481  0.645662  0.878498  1
  O  O15  1  0.645662  0.851481  0.121502  1
  O  O16  1  0.713655  0.459935  0.376711  1
  O  O17  1  0.459935  0.713655  0.623289  1
  O  O18  1  0.551551  0.277986  0.884147  1
  O  O19  1  0.277986  0.551551  0.115853  1
  O  O20  1  0.373147  0.144952  0.373167  1
  O  O21  1  0.144952  0.373147  0.626833  1
  O  O22  1  0.219423  0.948887  0.881272  1
  O  O23  1  0.948887  0.219423  0.118728  1
