# generated using pymatgen
data_Li4Mn3Cr3(WO8)2
_symmetry_space_group_name_H-M   'P 1'
_cell_length_a   6.03107714
_cell_length_b   6.03107714
_cell_length_c   9.78220434
_cell_angle_alpha   88.63430691
_cell_angle_beta   91.36569309
_cell_angle_gamma   119.99852522
_symmetry_Int_Tables_number   1
_chemical_formula_structural   Li4Mn3Cr3(WO8)2
_chemical_formula_sum   'Li4 Mn3 Cr3 W2 O16'
_cell_volume   308.03428261
_cell_formula_units_Z   1
loop_
 _symmetry_equiv_pos_site_id
 _symmetry_equiv_pos_as_xyz
  1  'x, y, z'
loop_
 _atom_site_type_symbol
 _atom_site_label
 _atom_site_symmetry_multiplicity
 _atom_site_fract_x
 _atom_site_fract_y
 _atom_site_fract_z
 _atom_site_occupancy
  Li  Li0  1  0.336249  0.663751  0.090504  1
  Li  Li1  1  0.996834  0.003166  0.012711  1
  Li  Li2  1  0.996552  0.003448  0.511663  1
  Li  Li3  1  0.671029  0.328971  0.594538  1
  Mn  Mn4  1  0.168602  0.831398  0.788233  1
  Mn  Mn5  1  0.337981  0.172780  0.287391  1
  Mn  Mn6  1  0.827220  0.662019  0.287391  1
  Cr  Cr7  1  0.168014  0.339477  0.786486  1
  Cr  Cr8  1  0.660523  0.831986  0.786486  1
  Cr  Cr9  1  0.828669  0.171331  0.284908  1
  W  W10  1  0.332178  0.667822  0.514274  1
  W  W11  1  0.667268  0.332732  0.013924  1
  O  O12  1  0.163767  0.351408  0.413107  1
  O  O13  1  0.479323  0.520677  0.659791  1
  O  O14  1  0.334239  0.665761  0.887680  1
  O  O15  1  0.998913  0.001087  0.697205  1
  O  O16  1  0.996272  0.003728  0.198504  1
  O  O17  1  0.648592  0.836233  0.413107  1
  O  O18  1  0.043683  0.510969  0.651287  1
  O  O19  1  0.489031  0.956317  0.651287  1
  O  O20  1  0.829149  0.170851  0.900671  1
  O  O21  1  0.170825  0.829175  0.424932  1
  O  O22  1  0.534921  0.037447  0.145130  1
  O  O23  1  0.962553  0.465079  0.145130  1
  O  O24  1  0.670741  0.329259  0.390002  1
  O  O25  1  0.343129  0.173502  0.910571  1
  O  O26  1  0.523682  0.476318  0.135310  1
  O  O27  1  0.826498  0.656871  0.910571  1
