# generated using pymatgen
data_Co3OF5
_symmetry_space_group_name_H-M   'P 1'
_cell_length_a   4.73155823
_cell_length_b   5.67537169
_cell_length_c   7.83299136
_cell_angle_alpha   86.21050576
_cell_angle_beta   88.69669256
_cell_angle_gamma   88.04059033
_symmetry_Int_Tables_number   1
_chemical_formula_structural   Co3OF5
_chemical_formula_sum   'Co6 O2 F10'
_cell_volume   209.71519992
_cell_formula_units_Z   2
loop_
 _symmetry_equiv_pos_site_id
 _symmetry_equiv_pos_as_xyz
  1  'x, y, z'
loop_
 _atom_site_type_symbol
 _atom_site_label
 _atom_site_symmetry_multiplicity
 _atom_site_fract_x
 _atom_site_fract_y
 _atom_site_fract_z
 _atom_site_occupancy
  Co  Co0  1  0.513861  0.497843  0.993630  1
  Co  Co1  1  0.525417  0.814315  0.660423  1
  Co  Co2  1  0.494347  0.165437  0.334539  1
  Co  Co3  1  0.986759  0.666388  0.342817  1
  Co  Co4  1  0.980305  0.341197  0.675952  1
  Co  Co5  1  0.996726  0.015414  0.994269  1
  O  O6  1  0.798095  0.612444  0.579843  1
  O  O7  1  0.811506  0.306900  0.881366  1
  F  F8  1  0.805144  0.966497  0.232843  1
  F  F9  1  0.696319  0.464068  0.234479  1
  F  F10  1  0.689173  0.812868  0.897941  1
  F  F11  1  0.705205  0.113542  0.562011  1
  F  F12  1  0.307331  0.858318  0.436063  1
  F  F13  1  0.296189  0.549066  0.766363  1
  F  F14  1  0.305485  0.204383  0.101677  1
  F  F15  1  0.206132  0.046727  0.752097  1
  F  F16  1  0.194331  0.703781  0.103434  1
  F  F17  1  0.187678  0.360809  0.450249  1
