# generated using pymatgen
data_Li2Fe7(OF2)4
_symmetry_space_group_name_H-M   'P 1'
_cell_length_a   11.08669063
_cell_length_b   11.08669063
_cell_length_c   6.35540751
_cell_angle_alpha   73.61499515
_cell_angle_beta   106.38500485
_cell_angle_gamma   134.63452194
_symmetry_Int_Tables_number   1
_chemical_formula_structural   Li2Fe7(OF2)4
_chemical_formula_sum   'Li4 Fe14 O8 F16'
_cell_volume   529.26683136
_cell_formula_units_Z   2
loop_
 _symmetry_equiv_pos_site_id
 _symmetry_equiv_pos_as_xyz
  1  'x, y, z'
loop_
 _atom_site_type_symbol
 _atom_site_label
 _atom_site_symmetry_multiplicity
 _atom_site_fract_x
 _atom_site_fract_y
 _atom_site_fract_z
 _atom_site_occupancy
  Li  Li0  1  0.995910  0.504241  0.017856  1
  Li  Li1  1  0.495759  0.004090  0.517856  1
  Li  Li2  1  0.141708  0.149876  0.738875  1
  Li  Li3  1  0.850124  0.858292  0.238875  1
  Fe  Fe4  1  0.320091  0.656117  0.330542  1
  Fe  Fe5  1  0.502982  0.481929  0.513238  1
  Fe  Fe6  1  0.695103  0.859358  0.704662  1
  Fe  Fe7  1  0.974759  0.324453  0.549408  1
  Fe  Fe8  1  0.850488  0.683363  0.871010  1
  Fe  Fe9  1  0.307559  0.980199  0.898867  1
  Fe  Fe10  1  0.343883  0.679909  0.830542  1
  Fe  Fe11  1  0.518071  0.497018  0.013238  1
  Fe  Fe12  1  0.672280  0.357587  0.168965  1
  Fe  Fe13  1  0.675547  0.025241  0.049408  1
  Fe  Fe14  1  0.316637  0.149512  0.371010  1
  Fe  Fe15  1  0.140642  0.304897  0.204662  1
  Fe  Fe16  1  0.019801  0.692441  0.398867  1
  Fe  Fe17  1  0.642413  0.327720  0.668965  1
  O  O18  1  0.088388  0.429613  0.287990  1
  O  O19  1  0.260645  0.267267  0.472256  1
  O  O20  1  0.601333  0.429826  0.831835  1
  O  O21  1  0.570387  0.911612  0.787990  1
  O  O22  1  0.922875  0.585369  0.135551  1
  O  O23  1  0.732733  0.739355  0.972256  1
  O  O24  1  0.570174  0.398667  0.331835  1
  O  O25  1  0.414631  0.077125  0.635551  1
  F  F26  1  0.569341  0.902113  0.344397  1
  F  F27  1  0.934724  0.110772  0.668205  1
  F  F28  1  0.417911  0.595251  0.655113  1
  F  F29  1  0.094512  0.940193  0.845000  1
  F  F30  1  0.249330  0.736485  0.503508  1
  F  F31  1  0.732206  0.253384  0.999309  1
  F  F32  1  0.263712  0.270522  0.015686  1
  F  F33  1  0.097887  0.430659  0.844397  1
  F  F34  1  0.418847  0.081547  0.190564  1
  F  F35  1  0.746616  0.267794  0.499309  1
  F  F36  1  0.404749  0.582089  0.155113  1
  F  F37  1  0.263515  0.750670  0.003508  1
  F  F38  1  0.889228  0.065276  0.168205  1
  F  F39  1  0.059807  0.905488  0.345000  1
  F  F40  1  0.729478  0.736288  0.515686  1
  F  F41  1  0.918453  0.581153  0.690564  1
