# generated using pymatgen
data_LiVF4
_symmetry_space_group_name_H-M   'P 1'
_cell_length_a   3.97562986
_cell_length_b   11.17520684
_cell_length_c   15.46214347
_cell_angle_alpha   90.00000000
_cell_angle_beta   90.00000000
_cell_angle_gamma   90.00000000
_symmetry_Int_Tables_number   1
_chemical_formula_structural   LiVF4
_chemical_formula_sum   'Li8 V8 F32'
_cell_volume   686.95962476
_cell_formula_units_Z   8
loop_
 _symmetry_equiv_pos_site_id
 _symmetry_equiv_pos_as_xyz
  1  'x, y, z'
loop_
 _atom_site_type_symbol
 _atom_site_label
 _atom_site_symmetry_multiplicity
 _atom_site_fract_x
 _atom_site_fract_y
 _atom_site_fract_z
 _atom_site_occupancy
  Li  Li0  1  0.015407  0.500000  0.853556  1
  Li  Li1  1  0.500000  0.250000  0.750000  1
  Li  Li2  1  0.500000  0.750000  0.750000  1
  Li  Li3  1  0.984593  0.000000  0.646444  1
  Li  Li4  1  0.984593  0.000000  0.353556  1
  Li  Li5  1  0.500000  0.750000  0.250000  1
  Li  Li6  1  0.500000  0.250000  0.250000  1
  Li  Li7  1  0.015407  0.500000  0.146444  1
  V  V8  1  0.282750  0.732825  0.000000  1
  V  V9  1  0.282750  0.267175  0.000000  1
  V  V10  1  0.238759  0.000000  0.831682  1
  V  V11  1  0.761241  0.500000  0.668318  1
  V  V12  1  0.717250  0.232825  0.500000  1
  V  V13  1  0.717250  0.767175  0.500000  1
  V  V14  1  0.761241  0.500000  0.331682  1
  V  V15  1  0.238759  0.000000  0.168318  1
  F  F16  1  0.782006  0.735637  0.000000  1
  F  F17  1  0.782006  0.264363  0.000000  1
  F  F18  1  0.275560  0.867154  0.913678  1
  F  F19  1  0.279933  0.623974  0.904545  1
  F  F20  1  0.279933  0.376026  0.904545  1
  F  F21  1  0.275560  0.132846  0.913678  1
  F  F22  1  0.739821  0.000000  0.828042  1
  F  F23  1  0.214306  0.880324  0.738102  1
  F  F24  1  0.214306  0.119676  0.738102  1
  F  F25  1  0.785694  0.619676  0.761898  1
  F  F26  1  0.785694  0.380324  0.761898  1
  F  F27  1  0.260179  0.500000  0.671958  1
  F  F28  1  0.724440  0.367154  0.586322  1
  F  F29  1  0.720067  0.876026  0.595455  1
  F  F30  1  0.724440  0.632846  0.586322  1
  F  F31  1  0.720067  0.123974  0.595455  1
  F  F32  1  0.217994  0.235637  0.500000  1
  F  F33  1  0.217994  0.764363  0.500000  1
  F  F34  1  0.720067  0.876026  0.404545  1
  F  F35  1  0.724440  0.632846  0.413678  1
  F  F36  1  0.724440  0.367154  0.413678  1
  F  F37  1  0.720067  0.123974  0.404545  1
  F  F38  1  0.260179  0.500000  0.328042  1
  F  F39  1  0.785694  0.619676  0.238102  1
  F  F40  1  0.785694  0.380324  0.238102  1
  F  F41  1  0.214306  0.880324  0.261898  1
  F  F42  1  0.214306  0.119676  0.261898  1
  F  F43  1  0.739821  0.000000  0.171958  1
  F  F44  1  0.275560  0.867154  0.086322  1
  F  F45  1  0.279933  0.623974  0.095455  1
  F  F46  1  0.279933  0.376026  0.095455  1
  F  F47  1  0.275560  0.132846  0.086322  1
