# generated using pymatgen
data_LiFe2(BO3)2
_symmetry_space_group_name_H-M   'P 1'
_cell_length_a   5.31321101
_cell_length_b   9.07500270
_cell_length_c   11.34313702
_cell_angle_alpha   113.53430305
_cell_angle_beta   102.38012311
_cell_angle_gamma   89.83331471
_symmetry_Int_Tables_number   1
_chemical_formula_structural   LiFe2(BO3)2
_chemical_formula_sum   'Li4 Fe8 B8 O24'
_cell_volume   487.68988267
_cell_formula_units_Z   4
loop_
 _symmetry_equiv_pos_site_id
 _symmetry_equiv_pos_as_xyz
  1  'x, y, z'
loop_
 _atom_site_type_symbol
 _atom_site_label
 _atom_site_symmetry_multiplicity
 _atom_site_fract_x
 _atom_site_fract_y
 _atom_site_fract_z
 _atom_site_occupancy
  Li  Li0  1  0.646903  0.290563  0.583115  1
  Li  Li1  1  0.387056  0.049424  0.097543  1
  Li  Li2  1  0.892228  0.546670  0.097190  1
  Li  Li3  1  0.576325  0.908273  0.841867  1
  Fe  Fe4  1  0.596366  0.588946  0.871622  1
  Fe  Fe5  1  0.897315  0.902600  0.121924  1
  Fe  Fe6  1  0.154923  0.484573  0.623668  1
  Fe  Fe7  1  0.341520  0.013260  0.368354  1
  Fe  Fe8  1  0.652013  0.962948  0.616613  1
  Fe  Fe9  1  0.846960  0.514365  0.367073  1
  Fe  Fe10  1  0.091835  0.106649  0.866516  1
  Fe  Fe11  1  0.394335  0.405908  0.124009  1
  B  B12  1  0.359440  0.355141  0.376076  1
  B  B13  1  0.094002  0.775537  0.867455  1
  B  B14  1  0.847313  0.851360  0.368018  1
  B  B15  1  0.606606  0.259802  0.878442  1
  B  B16  1  0.153541  0.153807  0.623962  1
  B  B17  1  0.397561  0.731946  0.123233  1
  B  B18  1  0.648051  0.632410  0.623589  1
  B  B19  1  0.892495  0.227725  0.119513  1
  O  O20  1  0.861686  0.782571  0.905330  1
  O  O21  1  0.537049  0.511793  0.651356  1
  O  O22  1  0.746961  0.099649  0.113028  1
  O  O23  1  0.460084  0.218088  0.380639  1
  O  O24  1  0.136390  0.404009  0.421974  1
  O  O25  1  0.205924  0.631711  0.814996  1
  O  O26  1  0.733659  0.395298  0.888104  1
  O  O27  1  0.977675  0.955790  0.333745  1
  O  O28  1  0.307786  0.889247  0.165383  1
  O  O29  1  0.381924  0.119713  0.579072  1
  O  O30  1  0.027392  0.285573  0.619985  1
  O  O31  1  0.631466  0.712600  0.084147  1
  O  O32  1  0.374350  0.266110  0.916992  1
  O  O33  1  0.625173  0.898730  0.414922  1
  O  O34  1  0.713278  0.110023  0.837149  1
  O  O35  1  0.048288  0.054703  0.672189  1
  O  O36  1  0.253043  0.605796  0.119224  1
  O  O37  1  0.810260  0.384122  0.165726  1
  O  O38  1  0.862938  0.592380  0.567658  1
  O  O39  1  0.556060  0.777834  0.651850  1
  O  O40  1  0.933214  0.706310  0.355235  1
  O  O41  1  0.232825  0.916825  0.885777  1
  O  O42  1  0.480078  0.448841  0.329940  1
  O  O43  1  0.125259  0.207547  0.077702  1
