# generated using pymatgen
data_Ba6YI15
_symmetry_space_group_name_H-M   'P 1'
_cell_length_a   17.88502166
_cell_length_b   13.30549267
_cell_length_c   26.43888820
_cell_angle_alpha   90.00000000
_cell_angle_beta   114.64286128
_cell_angle_gamma   90.00000000
_symmetry_Int_Tables_number   1
_chemical_formula_structural   Ba6YI15
_chemical_formula_sum   'Ba24 Y4 I60'
_cell_volume   5718.62217112
_cell_formula_units_Z   4
loop_
 _symmetry_equiv_pos_site_id
 _symmetry_equiv_pos_as_xyz
  1  'x, y, z'
loop_
 _atom_site_type_symbol
 _atom_site_label
 _atom_site_symmetry_multiplicity
 _atom_site_fract_x
 _atom_site_fract_y
 _atom_site_fract_z
 _atom_site_occupancy
  Ba  Ba0  1  0.629447  0.626791  0.385259  1
  Ba  Ba1  1  0.621190  0.122438  0.382082  1
  Ba  Ba2  1  0.055410  0.874846  0.450673  1
  Ba  Ba3  1  0.075205  0.375523  0.467245  1
  Ba  Ba4  1  0.402433  0.380073  0.409334  1
  Ba  Ba5  1  0.397538  0.868466  0.413931  1
  Ba  Ba6  1  0.602462  0.368466  0.086069  1
  Ba  Ba7  1  0.597567  0.880073  0.090666  1
  Ba  Ba8  1  0.924795  0.875523  0.032755  1
  Ba  Ba9  1  0.944590  0.374846  0.049327  1
  Ba  Ba10  1  0.378810  0.622438  0.117918  1
  Ba  Ba11  1  0.370553  0.126791  0.114741  1
  Ba  Ba12  1  0.629447  0.873209  0.885259  1
  Ba  Ba13  1  0.621190  0.377562  0.882082  1
  Ba  Ba14  1  0.055410  0.625154  0.950673  1
  Ba  Ba15  1  0.075205  0.124477  0.967245  1
  Ba  Ba16  1  0.402433  0.119927  0.909334  1
  Ba  Ba17  1  0.397538  0.631534  0.913931  1
  Ba  Ba18  1  0.602462  0.131534  0.586069  1
  Ba  Ba19  1  0.597567  0.619927  0.590666  1
  Ba  Ba20  1  0.924795  0.624477  0.532755  1
  Ba  Ba21  1  0.944590  0.125154  0.549327  1
  Ba  Ba22  1  0.378810  0.877562  0.617918  1
  Ba  Ba23  1  0.370553  0.373209  0.614741  1
  Y  Y24  1  0.867997  0.125959  0.283270  1
  Y  Y25  1  0.132003  0.625959  0.216730  1
  Y  Y26  1  0.867997  0.374041  0.783270  1
  Y  Y27  1  0.132003  0.874041  0.716730  1
  I  I28  1  0.095900  0.632295  0.502626  1
  I  I29  1  0.567290  0.874983  0.384247  1
  I  I30  1  0.577569  0.373894  0.385754  1
  I  I31  1  0.088329  0.117737  0.496471  1
  I  I32  1  0.268317  0.368304  0.470237  1
  I  I33  1  0.260672  0.883774  0.474851  1
  I  I34  1  0.812320  0.119451  0.372952  1
  I  I35  1  0.820424  0.634229  0.390501  1
  I  I36  1  0.510169  0.126071  0.246644  1
  I  I37  1  0.997736  0.966612  0.319014  1
  I  I38  1  0.992474  0.288770  0.329304  1
  I  I39  1  0.467874  0.625208  0.443336  1
  I  I40  1  0.462988  0.123761  0.436579  1
  I  I41  1  0.238678  0.465958  0.293655  1
  I  I42  1  0.227874  0.779763  0.302461  1
  I  I43  1  0.772126  0.279763  0.197539  1
  I  I44  1  0.761322  0.965958  0.206345  1
  I  I45  1  0.537012  0.623761  0.063421  1
  I  I46  1  0.532126  0.125208  0.056664  1
  I  I47  1  0.007526  0.788770  0.170696  1
  I  I48  1  0.002264  0.466612  0.180986  1
  I  I49  1  0.489831  0.626071  0.253356  1
  I  I50  1  0.179576  0.134229  0.109499  1
  I  I51  1  0.187680  0.619451  0.127048  1
  I  I52  1  0.739328  0.383774  0.025149  1
  I  I53  1  0.731683  0.868304  0.029763  1
  I  I54  1  0.911671  0.617737  0.003529  1
  I  I55  1  0.422431  0.873894  0.114246  1
  I  I56  1  0.432710  0.374983  0.115753  1
  I  I57  1  0.904100  0.132295  0.997374  1
  I  I58  1  0.095900  0.867705  0.002626  1
  I  I59  1  0.567290  0.625017  0.884247  1
  I  I60  1  0.577569  0.126106  0.885754  1
  I  I61  1  0.088329  0.382263  0.996471  1
  I  I62  1  0.268317  0.131696  0.970237  1
  I  I63  1  0.260672  0.616226  0.974851  1
  I  I64  1  0.812320  0.380549  0.872952  1
  I  I65  1  0.820424  0.865771  0.890501  1
  I  I66  1  0.510169  0.373929  0.746644  1
  I  I67  1  0.997736  0.533388  0.819014  1
  I  I68  1  0.992474  0.211230  0.829304  1
  I  I69  1  0.467874  0.874792  0.943336  1
  I  I70  1  0.462988  0.376239  0.936579  1
  I  I71  1  0.238678  0.034042  0.793655  1
  I  I72  1  0.227874  0.720237  0.802461  1
  I  I73  1  0.772126  0.220237  0.697539  1
  I  I74  1  0.761322  0.534042  0.706345  1
  I  I75  1  0.537012  0.876239  0.563421  1
  I  I76  1  0.532126  0.374792  0.556664  1
  I  I77  1  0.007526  0.711230  0.670696  1
  I  I78  1  0.002264  0.033388  0.680986  1
  I  I79  1  0.489831  0.873929  0.753356  1
  I  I80  1  0.179576  0.365771  0.609499  1
  I  I81  1  0.187680  0.880549  0.627048  1
  I  I82  1  0.739328  0.116226  0.525149  1
  I  I83  1  0.731683  0.631696  0.529763  1
  I  I84  1  0.911671  0.882263  0.503529  1
  I  I85  1  0.422431  0.626106  0.614246  1
  I  I86  1  0.432710  0.125017  0.615753  1
  I  I87  1  0.904100  0.367705  0.497374  1
