# generated using pymatgen
data_Li5Cu3(NiO5)2
_symmetry_space_group_name_H-M   'P 1'
_cell_length_a   4.97920575
_cell_length_b   5.25904150
_cell_length_c   7.48231460
_cell_angle_alpha   105.09079948
_cell_angle_beta   103.26647111
_cell_angle_gamma   103.99056144
_symmetry_Int_Tables_number   1
_chemical_formula_structural   Li5Cu3(NiO5)2
_chemical_formula_sum   'Li5 Cu3 Ni2 O10'
_cell_volume   174.39158188
_cell_formula_units_Z   1
loop_
 _symmetry_equiv_pos_site_id
 _symmetry_equiv_pos_as_xyz
  1  'x, y, z'
loop_
 _atom_site_type_symbol
 _atom_site_label
 _atom_site_symmetry_multiplicity
 _atom_site_fract_x
 _atom_site_fract_y
 _atom_site_fract_z
 _atom_site_occupancy
  Li  Li0  1  0.208380  0.897142  0.398942  1
  Li  Li1  1  0.396291  0.280654  0.785803  1
  Li  Li2  1  0.500000  0.500000  0.500000  1
  Li  Li3  1  0.603709  0.719346  0.214197  1
  Li  Li4  1  0.791620  0.102858  0.601058  1
  Cu  Cu5  1  0.000000  0.500000  0.000000  1
  Cu  Cu6  1  0.696345  0.887619  0.897245  1
  Cu  Cu7  1  0.303655  0.112381  0.102755  1
  Ni  Ni8  1  0.100549  0.675584  0.692440  1
  Ni  Ni9  1  0.899451  0.324416  0.307560  1
  O  O10  1  0.058246  0.021495  0.836014  1
  O  O11  1  0.340489  0.668438  0.924256  1
  O  O12  1  0.129160  0.332627  0.544746  1
  O  O13  1  0.214422  0.523284  0.247540  1
  O  O14  1  0.443639  0.880249  0.663173  1
  O  O15  1  0.556361  0.119751  0.336827  1
  O  O16  1  0.785578  0.476716  0.752460  1
  O  O17  1  0.870840  0.667373  0.455254  1
  O  O18  1  0.659511  0.331562  0.075744  1
  O  O19  1  0.941754  0.978505  0.163986  1
