# generated using pymatgen
data_Li8Mn3Fe5(BO3)8
_symmetry_space_group_name_H-M   'P 1'
_cell_length_a   5.22860030
_cell_length_b   5.24465370
_cell_length_c   20.80277162
_cell_angle_alpha   91.66700055
_cell_angle_beta   89.38544603
_cell_angle_gamma   119.74121050
_symmetry_Int_Tables_number   1
_chemical_formula_structural   Li8Mn3Fe5(BO3)8
_chemical_formula_sum   'Li8 Mn3 Fe5 B8 O24'
_cell_volume   495.09999652
_cell_formula_units_Z   1
loop_
 _symmetry_equiv_pos_site_id
 _symmetry_equiv_pos_as_xyz
  1  'x, y, z'
loop_
 _atom_site_type_symbol
 _atom_site_label
 _atom_site_symmetry_multiplicity
 _atom_site_fract_x
 _atom_site_fract_y
 _atom_site_fract_z
 _atom_site_occupancy
  Li  Li0  1  0.019370  0.671170  0.334211  1
  Li  Li1  1  0.975425  0.652603  0.083824  1
  Li  Li2  1  0.018040  0.674568  0.833334  1
  Li  Li3  1  0.978532  0.654968  0.582371  1
  Li  Li4  1  0.012769  0.345039  0.208709  1
  Li  Li5  1  0.988376  0.343587  0.458418  1
  Li  Li6  1  0.018451  0.347809  0.706943  1
  Li  Li7  1  0.988109  0.337560  0.957813  1
  Mn  Mn8  1  0.665089  0.673984  0.940343  1
  Mn  Mn9  1  0.322468  0.322529  0.067524  1
  Mn  Mn10  1  0.327111  0.325588  0.567142  1
  Fe  Fe11  1  0.653465  0.674904  0.439375  1
  Fe  Fe12  1  0.682505  0.003541  0.315454  1
  Fe  Fe13  1  0.681885  0.007402  0.815290  1
  Fe  Fe14  1  0.327587  0.997952  0.192746  1
  Fe  Fe15  1  0.332911  0.996058  0.692202  1
  B  B16  1  0.655699  0.996017  0.064103  1
  B  B17  1  0.658951  0.996570  0.562963  1
  B  B18  1  0.666517  0.668907  0.189943  1
  B  B19  1  0.670756  0.670426  0.689064  1
  B  B20  1  0.339271  0.331672  0.313445  1
  B  B21  1  0.335880  0.336094  0.812002  1
  B  B22  1  0.334830  0.007579  0.436986  1
  B  B23  1  0.338359  0.007539  0.936746  1
  O  O24  1  0.681931  0.932654  0.209174  1
  O  O25  1  0.686545  0.935199  0.707837  1
  O  O26  1  0.676873  0.746279  0.048169  1
  O  O27  1  0.389010  0.966101  0.085207  1
  O  O28  1  0.680019  0.747213  0.547253  1
  O  O29  1  0.392092  0.967655  0.583732  1
  O  O30  1  0.394695  0.420168  0.175468  1
  O  O31  1  0.081988  0.738924  0.430655  1
  O  O32  1  0.399877  0.420841  0.675211  1
  O  O33  1  0.089109  0.732678  0.930196  1
  O  O34  1  0.920771  0.650617  0.182922  1
  O  O35  1  0.925780  0.653325  0.681794  1
  O  O36  1  0.085433  0.353494  0.307787  1
  O  O37  1  0.082949  0.359568  0.805792  1
  O  O38  1  0.901218  0.271699  0.056804  1
  O  O39  1  0.603940  0.577349  0.331696  1
  O  O40  1  0.905387  0.272731  0.556190  1
  O  O41  1  0.600110  0.581644  0.830850  1
  O  O42  1  0.610714  0.032156  0.422289  1
  O  O43  1  0.614007  0.040521  0.920823  1
  O  O44  1  0.325627  0.258271  0.457065  1
  O  O45  1  0.317037  0.249339  0.958672  1
  O  O46  1  0.323157  0.062570  0.298760  1
  O  O47  1  0.319374  0.066138  0.798501  1
