# generated using pymatgen
data_Li2W(OF2)2
_symmetry_space_group_name_H-M   'P 1'
_cell_length_a   4.75965792
_cell_length_b   5.10075477
_cell_length_c   17.41320289
_cell_angle_alpha   90.00000000
_cell_angle_beta   90.00000000
_cell_angle_gamma   90.00000000
_symmetry_Int_Tables_number   1
_chemical_formula_structural   Li2W(OF2)2
_chemical_formula_sum   'Li8 W4 O8 F16'
_cell_volume   422.75509015
_cell_formula_units_Z   4
loop_
 _symmetry_equiv_pos_site_id
 _symmetry_equiv_pos_as_xyz
  1  'x, y, z'
loop_
 _atom_site_type_symbol
 _atom_site_label
 _atom_site_symmetry_multiplicity
 _atom_site_fract_x
 _atom_site_fract_y
 _atom_site_fract_z
 _atom_site_occupancy
  Li  Li0  1  0.000000  0.250000  0.232295  1
  Li  Li1  1  0.000000  0.750000  0.449741  1
  Li  Li2  1  0.000000  0.250000  0.550259  1
  Li  Li3  1  0.000000  0.750000  0.767705  1
  Li  Li4  1  0.500000  0.750000  0.267705  1
  Li  Li5  1  0.500000  0.750000  0.949741  1
  Li  Li6  1  0.500000  0.250000  0.050259  1
  Li  Li7  1  0.500000  0.250000  0.732295  1
  W  W8  1  0.000000  0.750000  0.107482  1
  W  W9  1  0.000000  0.250000  0.892518  1
  W  W10  1  0.500000  0.250000  0.392518  1
  W  W11  1  0.500000  0.750000  0.607482  1
  O  O12  1  0.753110  0.897164  0.043996  1
  O  O13  1  0.753110  0.397164  0.956004  1
  O  O14  1  0.746890  0.397164  0.456004  1
  O  O15  1  0.746890  0.897164  0.543996  1
  O  O16  1  0.253110  0.602836  0.543996  1
  O  O17  1  0.253110  0.102836  0.456004  1
  O  O18  1  0.246890  0.602836  0.043996  1
  O  O19  1  0.246890  0.102836  0.956004  1
  F  F20  1  0.788005  0.906726  0.201325  1
  F  F21  1  0.788005  0.406726  0.798675  1
  F  F22  1  0.773820  0.935645  0.873261  1
  F  F23  1  0.773820  0.435645  0.126739  1
  F  F24  1  0.726180  0.435645  0.626739  1
  F  F25  1  0.726180  0.935645  0.373261  1
  F  F26  1  0.711995  0.906726  0.701325  1
  F  F27  1  0.711995  0.406726  0.298675  1
  F  F28  1  0.288005  0.093274  0.298675  1
  F  F29  1  0.288005  0.593274  0.701325  1
  F  F30  1  0.273820  0.564355  0.373261  1
  F  F31  1  0.273820  0.064355  0.626739  1
  F  F32  1  0.226180  0.064355  0.126739  1
  F  F33  1  0.226180  0.564355  0.873261  1
  F  F34  1  0.211995  0.093274  0.798675  1
  F  F35  1  0.211995  0.593274  0.201325  1
