# generated using pymatgen
data_Ho2(SeO4)3
_symmetry_space_group_name_H-M   'P 1'
_cell_length_a   9.65628705
_cell_length_b   9.74681607
_cell_length_c   13.42768212
_cell_angle_alpha   90.00000000
_cell_angle_beta   90.00000000
_cell_angle_gamma   90.00000000
_symmetry_Int_Tables_number   1
_chemical_formula_structural   Ho2(SeO4)3
_chemical_formula_sum   'Ho8 Se12 O48'
_cell_volume   1263.78730812
_cell_formula_units_Z   4
loop_
 _symmetry_equiv_pos_site_id
 _symmetry_equiv_pos_as_xyz
  1  'x, y, z'
loop_
 _atom_site_type_symbol
 _atom_site_label
 _atom_site_symmetry_multiplicity
 _atom_site_fract_x
 _atom_site_fract_y
 _atom_site_fract_z
 _atom_site_occupancy
  Ho  Ho0  1  0.749769  0.962264  0.117738  1
  Ho  Ho1  1  0.250231  0.462264  0.117738  1
  Ho  Ho2  1  0.750231  0.462264  0.382262  1
  Ho  Ho3  1  0.249769  0.962264  0.382262  1
  Ho  Ho4  1  0.750231  0.037736  0.617738  1
  Ho  Ho5  1  0.249769  0.537736  0.617738  1
  Ho  Ho6  1  0.749769  0.537736  0.882262  1
  Ho  Ho7  1  0.250231  0.037736  0.882262  1
  Se  Se8  1  0.534999  0.250000  0.000000  1
  Se  Se9  1  0.465001  0.750000  0.000000  1
  Se  Se10  1  0.893901  0.611565  0.146681  1
  Se  Se11  1  0.106099  0.111565  0.146681  1
  Se  Se12  1  0.606099  0.111565  0.353319  1
  Se  Se13  1  0.393901  0.611565  0.353319  1
  Se  Se14  1  0.965001  0.750000  0.500000  1
  Se  Se15  1  0.034999  0.250000  0.500000  1
  Se  Se16  1  0.606099  0.388435  0.646681  1
  Se  Se17  1  0.393901  0.888435  0.646681  1
  Se  Se18  1  0.893901  0.888435  0.853319  1
  Se  Se19  1  0.106099  0.388435  0.853319  1
  O  O20  1  0.167315  0.073878  0.034239  1
  O  O21  1  0.832685  0.573878  0.034239  1
  O  O22  1  0.364733  0.644788  0.064768  1
  O  O23  1  0.635267  0.144788  0.064768  1
  O  O24  1  0.562353  0.836652  0.080577  1
  O  O25  1  0.437647  0.336652  0.080577  1
  O  O26  1  0.935026  0.094236  0.148369  1
  O  O27  1  0.064974  0.594236  0.148369  1
  O  O28  1  0.856049  0.773165  0.176286  1
  O  O29  1  0.143951  0.273165  0.176286  1
  O  O30  1  0.822347  0.503546  0.227464  1
  O  O31  1  0.177653  0.003546  0.227464  1
  O  O32  1  0.677653  0.003546  0.272536  1
  O  O33  1  0.322347  0.503546  0.272536  1
  O  O34  1  0.356049  0.773165  0.323714  1
  O  O35  1  0.643951  0.273165  0.323714  1
  O  O36  1  0.564974  0.594236  0.351631  1
  O  O37  1  0.435026  0.094236  0.351631  1
  O  O38  1  0.937647  0.336652  0.419423  1
  O  O39  1  0.062353  0.836652  0.419423  1
  O  O40  1  0.864733  0.644788  0.435232  1
  O  O41  1  0.135267  0.144788  0.435232  1
  O  O42  1  0.667315  0.073878  0.465761  1
  O  O43  1  0.332685  0.573878  0.465761  1
  O  O44  1  0.667315  0.426122  0.534239  1
  O  O45  1  0.332685  0.926122  0.534239  1
  O  O46  1  0.135267  0.355212  0.564768  1
  O  O47  1  0.864733  0.855212  0.564768  1
  O  O48  1  0.937647  0.163348  0.580577  1
  O  O49  1  0.062353  0.663348  0.580577  1
  O  O50  1  0.564974  0.905764  0.648369  1
  O  O51  1  0.435026  0.405764  0.648369  1
  O  O52  1  0.643951  0.226835  0.676286  1
  O  O53  1  0.356049  0.726835  0.676286  1
  O  O54  1  0.677653  0.496454  0.727464  1
  O  O55  1  0.322347  0.996454  0.727464  1
  O  O56  1  0.822347  0.996454  0.772536  1
  O  O57  1  0.177653  0.496454  0.772536  1
  O  O58  1  0.856049  0.726835  0.823714  1
  O  O59  1  0.143951  0.226835  0.823714  1
  O  O60  1  0.935026  0.405764  0.851631  1
  O  O61  1  0.064974  0.905764  0.851631  1
  O  O62  1  0.562353  0.663348  0.919423  1
  O  O63  1  0.437647  0.163348  0.919423  1
  O  O64  1  0.635267  0.355212  0.935232  1
  O  O65  1  0.364733  0.855212  0.935232  1
  O  O66  1  0.832685  0.926122  0.965761  1
  O  O67  1  0.167315  0.426122  0.965761  1
