# generated using pymatgen
data_Na2BiBSO7
_symmetry_space_group_name_H-M   'P 1'
_cell_length_a   5.52820013
_cell_length_b   7.07899930
_cell_length_c   9.67658800
_cell_angle_alpha   90.00000000
_cell_angle_beta   91.17169151
_cell_angle_gamma   90.00000000
_symmetry_Int_Tables_number   1
_chemical_formula_structural   Na2BiBSO7
_chemical_formula_sum   'Na4 Bi2 B2 S2 O14'
_cell_volume   378.60562290
_cell_formula_units_Z   2
loop_
 _symmetry_equiv_pos_site_id
 _symmetry_equiv_pos_as_xyz
  1  'x, y, z'
loop_
 _atom_site_type_symbol
 _atom_site_label
 _atom_site_symmetry_multiplicity
 _atom_site_fract_x
 _atom_site_fract_y
 _atom_site_fract_z
 _atom_site_occupancy
  Na  Na0  1  0.239757  0.503417  0.181564  1
  Na  Na1  1  0.239757  0.996583  0.181564  1
  Na  Na2  1  0.760243  0.496583  0.818436  1
  Na  Na3  1  0.760243  0.003417  0.818436  1
  Bi  Bi4  1  0.763756  0.750000  0.360685  1
  Bi  Bi5  1  0.236244  0.250000  0.639315  1
  B  B6  1  0.737620  0.750000  0.086252  1
  B  B7  1  0.262380  0.250000  0.913748  1
  S  S8  1  0.720916  0.250000  0.402826  1
  S  S9  1  0.279084  0.750000  0.597174  1
  O  O10  1  0.271866  0.250000  0.049284  1
  O  O11  1  0.957309  0.750000  0.169516  1
  O  O12  1  0.532600  0.750000  0.176406  1
  O  O13  1  0.847549  0.081340  0.343162  1
  O  O14  1  0.847549  0.418660  0.343162  1
  O  O15  1  0.247391  0.750000  0.442345  1
  O  O16  1  0.460824  0.250000  0.366026  1
  O  O17  1  0.539176  0.750000  0.633974  1
  O  O18  1  0.752609  0.250000  0.557655  1
  O  O19  1  0.152451  0.581340  0.656838  1
  O  O20  1  0.152451  0.918660  0.656838  1
  O  O21  1  0.467400  0.250000  0.823594  1
  O  O22  1  0.042691  0.250000  0.830484  1
  O  O23  1  0.728134  0.750000  0.950716  1
