# generated using pymatgen
data_Sr6Bi2O11
_symmetry_space_group_name_H-M   'P 1'
_cell_length_a   8.61755815
_cell_length_b   8.58263287
_cell_length_c   8.85599111
_cell_angle_alpha   90.00000000
_cell_angle_beta   90.12502703
_cell_angle_gamma   90.00000000
_symmetry_Int_Tables_number   1
_chemical_formula_structural   Sr6Bi2O11
_chemical_formula_sum   'Sr12 Bi4 O22'
_cell_volume   654.99939039
_cell_formula_units_Z   2
loop_
 _symmetry_equiv_pos_site_id
 _symmetry_equiv_pos_as_xyz
  1  'x, y, z'
loop_
 _atom_site_type_symbol
 _atom_site_label
 _atom_site_symmetry_multiplicity
 _atom_site_fract_x
 _atom_site_fract_y
 _atom_site_fract_z
 _atom_site_occupancy
  Sr  Sr0  1  0.250446  0.250000  0.998832  1
  Sr  Sr1  1  0.982098  0.486666  0.716563  1
  Sr  Sr2  1  0.982098  0.013334  0.716563  1
  Sr  Sr3  1  0.248780  0.750000  0.578314  1
  Sr  Sr4  1  0.513353  0.483567  0.715818  1
  Sr  Sr5  1  0.513353  0.016433  0.715818  1
  Sr  Sr6  1  0.017902  0.986666  0.283437  1
  Sr  Sr7  1  0.749554  0.750000  0.001168  1
  Sr  Sr8  1  0.017902  0.513334  0.283437  1
  Sr  Sr9  1  0.486647  0.983567  0.284182  1
  Sr  Sr10  1  0.751220  0.250000  0.421686  1
  Sr  Sr11  1  0.486647  0.516433  0.284182  1
  Bi  Bi12  1  0.250978  0.750000  0.963792  1
  Bi  Bi13  1  0.250501  0.250000  0.499323  1
  Bi  Bi14  1  0.749022  0.250000  0.036208  1
  Bi  Bi15  1  0.749499  0.750000  0.500677  1
  O  O16  1  0.003497  0.250000  0.515997  1
  O  O17  1  0.996503  0.750000  0.484003  1
  O  O18  1  0.249890  0.980734  0.881115  1
  O  O19  1  0.249890  0.519266  0.881115  1
  O  O20  1  0.754846  0.750000  0.733980  1
  O  O21  1  0.018023  0.750000  0.889184  1
  O  O22  1  0.502207  0.750000  0.491442  1
  O  O23  1  0.747478  0.250000  0.798513  1
  O  O24  1  0.497793  0.250000  0.508558  1
  O  O25  1  0.981977  0.250000  0.110816  1
  O  O26  1  0.245154  0.250000  0.266020  1
  O  O27  1  0.249344  0.002615  0.484832  1
  O  O28  1  0.750110  0.480734  0.118885  1
  O  O29  1  0.750110  0.019266  0.118885  1
  O  O30  1  0.249344  0.497385  0.484832  1
  O  O31  1  0.258644  0.250000  0.732308  1
  O  O32  1  0.517418  0.250000  0.114595  1
  O  O33  1  0.741356  0.750000  0.267692  1
  O  O34  1  0.482582  0.750000  0.885405  1
  O  O35  1  0.750656  0.997385  0.515168  1
  O  O36  1  0.750656  0.502615  0.515168  1
  O  O37  1  0.252522  0.750000  0.201487  1
