# generated using pymatgen
data_V3Ni(PO4)6
_symmetry_space_group_name_H-M   'P 1'
_cell_length_a   8.76018393
_cell_length_b   8.76018393
_cell_length_c   8.76018393
_cell_angle_alpha   58.48846042
_cell_angle_beta   58.48846042
_cell_angle_gamma   58.48846042
_symmetry_Int_Tables_number   1
_chemical_formula_structural   V3Ni(PO4)6
_chemical_formula_sum   'V3 Ni1 P6 O24'
_cell_volume   458.92420745
_cell_formula_units_Z   1
loop_
 _symmetry_equiv_pos_site_id
 _symmetry_equiv_pos_as_xyz
  1  'x, y, z'
loop_
 _atom_site_type_symbol
 _atom_site_label
 _atom_site_symmetry_multiplicity
 _atom_site_fract_x
 _atom_site_fract_y
 _atom_site_fract_z
 _atom_site_occupancy
  V  V0  1  0.860599  0.860599  0.860599  1
  V  V1  1  0.641050  0.641050  0.641050  1
  V  V2  1  0.360841  0.360841  0.360841  1
  Ni  Ni3  1  0.141806  0.141806  0.141806  1
  P  P4  1  0.250335  0.530986  0.967827  1
  P  P5  1  0.967827  0.250335  0.530986  1
  P  P6  1  0.530986  0.967827  0.250335  1
  P  P7  1  0.467823  0.032423  0.750777  1
  P  P8  1  0.032423  0.750777  0.467823  1
  P  P9  1  0.750777  0.467823  0.032423  1
  O  O10  1  0.708339  0.506780  0.861910  1
  O  O11  1  0.506780  0.861910  0.708339  1
  O  O12  1  0.070703  0.714684  0.941724  1
  O  O13  1  0.861910  0.708339  0.506780  1
  O  O14  1  0.422292  0.576465  0.783565  1
  O  O15  1  0.238055  0.361990  0.976224  1
  O  O16  1  0.941724  0.070703  0.714684  1
  O  O17  1  0.783565  0.422292  0.576465  1
  O  O18  1  0.576465  0.783565  0.422292  1
  O  O19  1  0.644200  0.004715  0.776206  1
  O  O20  1  0.287394  0.049677  0.919730  1
  O  O21  1  0.004715  0.776206  0.644200  1
  O  O22  1  0.976224  0.238055  0.361990  1
  O  O23  1  0.714684  0.941724  0.070703  1
  O  O24  1  0.361990  0.976224  0.238055  1
  O  O25  1  0.443863  0.214843  0.568734  1
  O  O26  1  0.214843  0.568734  0.443863  1
  O  O27  1  0.049677  0.919730  0.287394  1
  O  O28  1  0.776206  0.644200  0.004715  1
  O  O29  1  0.568734  0.443863  0.214843  1
  O  O30  1  0.143409  0.275740  0.504289  1
  O  O31  1  0.919730  0.287394  0.049677  1
  O  O32  1  0.504289  0.143409  0.275740  1
  O  O33  1  0.275740  0.504289  0.143409  1
