# generated using pymatgen
data_LiFePO4
_symmetry_space_group_name_H-M   'P 1'
_cell_length_a   5.06066380
_cell_length_b   5.06066380
_cell_length_c   5.06066380
_cell_angle_alpha   121.66403031
_cell_angle_beta   121.66403031
_cell_angle_gamma   87.14119643
_symmetry_Int_Tables_number   1
_chemical_formula_structural   LiFePO4
_chemical_formula_sum   'Li1 Fe1 P1 O4'
_cell_volume   89.21893729
_cell_formula_units_Z   1
loop_
 _symmetry_equiv_pos_site_id
 _symmetry_equiv_pos_as_xyz
  1  'x, y, z'
loop_
 _atom_site_type_symbol
 _atom_site_label
 _atom_site_symmetry_multiplicity
 _atom_site_fract_x
 _atom_site_fract_y
 _atom_site_fract_z
 _atom_site_occupancy
  Li  Li0  1  0.500000  0.500000  0.000000  1
  Fe  Fe1  1  0.000000  0.000000  0.000000  1
  P  P2  1  0.250000  0.750000  0.500000  1
  O  O3  1  0.187997  0.685618  0.132747  1
  O  O4  1  0.944750  0.812003  0.497621  1
  O  O5  1  0.552871  0.055250  0.867253  1
  O  O6  1  0.314382  0.447129  0.502379  1
