# generated using pymatgen
data_Li3Fe(PO4)2
_symmetry_space_group_name_H-M   'P 1'
_cell_length_a   9.08468587
_cell_length_b   4.88038607
_cell_length_c   14.79660806
_cell_angle_alpha   90.00000000
_cell_angle_beta   103.63315264
_cell_angle_gamma   90.00000000
_symmetry_Int_Tables_number   1
_chemical_formula_structural   Li3Fe(PO4)2
_chemical_formula_sum   'Li12 Fe4 P8 O32'
_cell_volume   637.54997350
_cell_formula_units_Z   4
loop_
 _symmetry_equiv_pos_site_id
 _symmetry_equiv_pos_as_xyz
  1  'x, y, z'
loop_
 _atom_site_type_symbol
 _atom_site_label
 _atom_site_symmetry_multiplicity
 _atom_site_fract_x
 _atom_site_fract_y
 _atom_site_fract_z
 _atom_site_occupancy
  Li  Li0  1  0.107980  0.746375  0.923503  1
  Li  Li1  1  0.107980  0.753625  0.423503  1
  Li  Li2  1  0.266287  0.347196  0.509184  1
  Li  Li3  1  0.266287  0.152804  0.009184  1
  Li  Li4  1  0.399767  0.864134  0.654374  1
  Li  Li5  1  0.399767  0.635866  0.154374  1
  Li  Li6  1  0.600233  0.364134  0.845626  1
  Li  Li7  1  0.600233  0.135866  0.345626  1
  Li  Li8  1  0.733713  0.652804  0.490816  1
  Li  Li9  1  0.733713  0.847196  0.990816  1
  Li  Li10  1  0.892020  0.246375  0.576497  1
  Li  Li11  1  0.892020  0.253625  0.076497  1
  Fe  Fe12  1  0.189326  0.208598  0.792738  1
  Fe  Fe13  1  0.189326  0.291402  0.292738  1
  Fe  Fe14  1  0.810674  0.708598  0.707262  1
  Fe  Fe15  1  0.810674  0.791402  0.207262  1
  P  P16  1  0.067510  0.750447  0.627603  1
  P  P17  1  0.067510  0.749553  0.127603  1
  P  P18  1  0.406147  0.773900  0.856616  1
  P  P19  1  0.406147  0.726100  0.356616  1
  P  P20  1  0.593853  0.273900  0.643384  1
  P  P21  1  0.593853  0.226100  0.143384  1
  P  P22  1  0.932490  0.250447  0.872397  1
  P  P23  1  0.932490  0.249553  0.372397  1
  O  O24  1  0.032763  0.526021  0.696721  1
  O  O25  1  0.032763  0.973979  0.196721  1
  O  O26  1  0.097751  0.354809  0.915968  1
  O  O27  1  0.097751  0.145191  0.415968  1
  O  O28  1  0.151281  0.637868  0.557938  1
  O  O29  1  0.151281  0.862132  0.057938  1
  O  O30  1  0.159602  0.997747  0.676785  1
  O  O31  1  0.159602  0.502253  0.176785  1
  O  O32  1  0.327431  0.503042  0.813796  1
  O  O33  1  0.283343  0.930857  0.897996  1
  O  O34  1  0.327431  0.996958  0.313796  1
  O  O35  1  0.283343  0.569143  0.397996  1
  O  O36  1  0.448996  0.187906  0.573598  1
  O  O37  1  0.448996  0.312094  0.073598  1
  O  O38  1  0.435769  0.974722  0.784102  1
  O  O39  1  0.564231  0.474722  0.715898  1
  O  O40  1  0.435769  0.525278  0.284102  1
  O  O41  1  0.564231  0.025278  0.215898  1
  O  O42  1  0.551004  0.687906  0.926402  1
  O  O43  1  0.551004  0.812094  0.426402  1
  O  O44  1  0.716657  0.430857  0.602004  1
  O  O45  1  0.672569  0.003042  0.686204  1
  O  O46  1  0.716657  0.069143  0.102004  1
  O  O47  1  0.672569  0.496958  0.186204  1
  O  O48  1  0.840398  0.497747  0.823215  1
  O  O49  1  0.840398  0.002253  0.323215  1
  O  O50  1  0.848719  0.137868  0.942062  1
  O  O51  1  0.848719  0.362132  0.442062  1
  O  O52  1  0.902249  0.854809  0.584032  1
  O  O53  1  0.902249  0.645191  0.084032  1
  O  O54  1  0.967237  0.026021  0.803279  1
  O  O55  1  0.967237  0.473979  0.303279  1
