# generated using pymatgen
data_Li2Mn2OF6
_symmetry_space_group_name_H-M   'P 1'
_cell_length_a   6.79242783
_cell_length_b   6.79242783
_cell_length_c   5.73346756
_cell_angle_alpha   84.71858377
_cell_angle_beta   95.28141623
_cell_angle_gamma   92.58536954
_symmetry_Int_Tables_number   1
_chemical_formula_structural   Li2Mn2OF6
_chemical_formula_sum   'Li4 Mn4 O2 F12'
_cell_volume   262.10507365
_cell_formula_units_Z   2
loop_
 _symmetry_equiv_pos_site_id
 _symmetry_equiv_pos_as_xyz
  1  'x, y, z'
loop_
 _atom_site_type_symbol
 _atom_site_label
 _atom_site_symmetry_multiplicity
 _atom_site_fract_x
 _atom_site_fract_y
 _atom_site_fract_z
 _atom_site_occupancy
  Li  Li0  1  0.526216  0.236348  0.329408  1
  Li  Li1  1  0.236348  0.526216  0.170592  1
  Li  Li2  1  0.763652  0.473784  0.829408  1
  Li  Li3  1  0.473784  0.763652  0.670592  1
  Mn  Mn4  1  0.746977  0.982371  0.014819  1
  Mn  Mn5  1  0.253023  0.017629  0.985181  1
  Mn  Mn6  1  0.017629  0.253023  0.514819  1
  Mn  Mn7  1  0.982371  0.746977  0.485181  1
  O  O8  1  0.965018  0.965018  0.250000  1
  O  O9  1  0.034982  0.034982  0.750000  1
  F  F10  1  0.730504  0.253845  0.047770  1
  F  F11  1  0.290582  0.291039  0.019450  1
  F  F12  1  0.709418  0.708961  0.980550  1
  F  F13  1  0.269496  0.746155  0.952230  1
  F  F14  1  0.986599  0.476527  0.278438  1
  F  F15  1  0.476527  0.986599  0.221562  1
  F  F16  1  0.746155  0.269496  0.547770  1
  F  F17  1  0.291039  0.290582  0.480551  1
  F  F18  1  0.708961  0.709418  0.519449  1
  F  F19  1  0.253845  0.730504  0.452230  1
  F  F20  1  0.523473  0.013401  0.778438  1
  F  F21  1  0.013401  0.523473  0.721562  1
