# generated using pymatgen
data_MnTeO4
_symmetry_space_group_name_H-M   'P 1'
_cell_length_a   5.16515480
_cell_length_b   3.12775072
_cell_length_c   5.91160995
_cell_angle_alpha   90.00000000
_cell_angle_beta   115.57419659
_cell_angle_gamma   90.00000000
_symmetry_Int_Tables_number   1
_chemical_formula_structural   MnTeO4
_chemical_formula_sum   'Mn1 Te1 O4'
_cell_volume   86.14712652
_cell_formula_units_Z   1
loop_
 _symmetry_equiv_pos_site_id
 _symmetry_equiv_pos_as_xyz
  1  'x, y, z'
loop_
 _atom_site_type_symbol
 _atom_site_label
 _atom_site_symmetry_multiplicity
 _atom_site_fract_x
 _atom_site_fract_y
 _atom_site_fract_z
 _atom_site_occupancy
  Mn  Mn0  1  0.500000  0.500000  0.000000  1
  Te  Te1  1  0.500000  0.000000  0.500000  1
  O  O2  1  0.663668  0.000000  0.266402  1
  O  O3  1  0.747398  0.500000  0.700351  1
  O  O4  1  0.336332  0.000000  0.733598  1
  O  O5  1  0.252602  0.500000  0.299649  1
