# generated using pymatgen
data_Li4Ti3Co3(SbO8)2
_symmetry_space_group_name_H-M   'P 1'
_cell_length_a   6.02484174
_cell_length_b   6.02484174
_cell_length_c   9.76543572
_cell_angle_alpha   88.95419797
_cell_angle_beta   91.04580203
_cell_angle_gamma   120.66650102
_symmetry_Int_Tables_number   1
_chemical_formula_structural   Li4Ti3Co3(SbO8)2
_chemical_formula_sum   'Li4 Ti3 Co3 Sb2 O16'
_cell_volume   304.83272732
_cell_formula_units_Z   1
loop_
 _symmetry_equiv_pos_site_id
 _symmetry_equiv_pos_as_xyz
  1  'x, y, z'
loop_
 _atom_site_type_symbol
 _atom_site_label
 _atom_site_symmetry_multiplicity
 _atom_site_fract_x
 _atom_site_fract_y
 _atom_site_fract_z
 _atom_site_occupancy
  Li  Li0  1  0.663353  0.336647  0.897727  1
  Li  Li1  1  0.992241  0.007759  0.980615  1
  Li  Li2  1  0.001564  0.998436  0.494931  1
  Li  Li3  1  0.333488  0.666512  0.406996  1
  Ti  Ti4  1  0.340871  0.164681  0.214451  1
  Ti  Ti5  1  0.835319  0.659129  0.214451  1
  Ti  Ti6  1  0.174568  0.825432  0.718096  1
  Co  Co7  1  0.827670  0.172330  0.210618  1
  Co  Co8  1  0.172095  0.344286  0.711026  1
  Co  Co9  1  0.655714  0.827905  0.711026  1
  Sb  Sb10  1  0.672531  0.327469  0.493783  1
  Sb  Sb11  1  0.340325  0.659675  0.983602  1
  O  O12  1  0.342808  0.159038  0.594407  1
  O  O13  1  0.521585  0.478415  0.339457  1
  O  O14  1  0.649360  0.350640  0.105102  1
  O  O15  1  0.006855  0.993145  0.302065  1
  O  O16  1  0.009439  0.990561  0.795268  1
  O  O17  1  0.840962  0.657192  0.594407  1
  O  O18  1  0.506516  0.042425  0.342385  1
  O  O19  1  0.957575  0.493484  0.342385  1
  O  O20  1  0.170706  0.829294  0.106273  1
  O  O21  1  0.840043  0.159957  0.584227  1
  O  O22  1  0.033391  0.530341  0.854785  1
  O  O23  1  0.469659  0.966609  0.854785  1
  O  O24  1  0.318954  0.681046  0.603881  1
  O  O25  1  0.173289  0.332105  0.099980  1
  O  O26  1  0.481557  0.518443  0.851195  1
  O  O27  1  0.667895  0.826711  0.099980  1
