# generated using pymatgen
data_Na2SiBiCO7
_symmetry_space_group_name_H-M   'P 1'
_cell_length_a   5.35767836
_cell_length_b   6.95585446
_cell_length_c   9.31155999
_cell_angle_alpha   90.00000000
_cell_angle_beta   91.17710683
_cell_angle_gamma   90.00000000
_symmetry_Int_Tables_number   1
_chemical_formula_structural   Na2SiBiCO7
_chemical_formula_sum   'Na4 Si2 Bi2 C2 O14'
_cell_volume   346.94282620
_cell_formula_units_Z   2
loop_
 _symmetry_equiv_pos_site_id
 _symmetry_equiv_pos_as_xyz
  1  'x, y, z'
loop_
 _atom_site_type_symbol
 _atom_site_label
 _atom_site_symmetry_multiplicity
 _atom_site_fract_x
 _atom_site_fract_y
 _atom_site_fract_z
 _atom_site_occupancy
  Na  Na0  1  0.231296  0.007306  0.220746  1
  Na  Na1  1  0.231296  0.492694  0.220746  1
  Na  Na2  1  0.768704  0.507306  0.779254  1
  Na  Na3  1  0.768704  0.992694  0.779254  1
  Si  Si4  1  0.709621  0.250000  0.416333  1
  Si  Si5  1  0.290379  0.750000  0.583667  1
  Bi  Bi6  1  0.785331  0.750000  0.365926  1
  Bi  Bi7  1  0.214669  0.250000  0.634074  1
  C  C8  1  0.727998  0.750000  0.068295  1
  C  C9  1  0.272002  0.250000  0.931705  1
  O  O10  1  0.295511  0.250000  0.065973  1
  O  O11  1  0.947958  0.750000  0.135248  1
  O  O12  1  0.531144  0.750000  0.153310  1
  O  O13  1  0.824512  0.064801  0.329697  1
  O  O14  1  0.824512  0.435199  0.329697  1
  O  O15  1  0.197910  0.750000  0.412206  1
  O  O16  1  0.401015  0.250000  0.412018  1
  O  O17  1  0.598985  0.750000  0.587982  1
  O  O18  1  0.802090  0.250000  0.587794  1
  O  O19  1  0.175488  0.564801  0.670303  1
  O  O20  1  0.175488  0.935199  0.670303  1
  O  O21  1  0.468856  0.250000  0.846690  1
  O  O22  1  0.052042  0.250000  0.864752  1
  O  O23  1  0.704489  0.750000  0.934027  1
