# generated using pymatgen
data_Li6Fe7O15
_symmetry_space_group_name_H-M   'P 1'
_cell_length_a   7.93132927
_cell_length_b   7.93132927
_cell_length_c   8.98201394
_cell_angle_alpha   78.46529500
_cell_angle_beta   101.53470500
_cell_angle_gamma   151.18531356
_symmetry_Int_Tables_number   1
_chemical_formula_structural   Li6Fe7O15
_chemical_formula_sum   'Li6 Fe7 O15'
_cell_volume   266.46156380
_cell_formula_units_Z   1
loop_
 _symmetry_equiv_pos_site_id
 _symmetry_equiv_pos_as_xyz
  1  'x, y, z'
loop_
 _atom_site_type_symbol
 _atom_site_label
 _atom_site_symmetry_multiplicity
 _atom_site_fract_x
 _atom_site_fract_y
 _atom_site_fract_z
 _atom_site_occupancy
  Li  Li0  1  0.393636  0.606364  0.131827  1
  Li  Li1  1  0.000961  0.999039  0.999554  1
  Li  Li2  1  0.998832  0.001168  0.339523  1
  Li  Li3  1  0.195786  0.804214  0.398607  1
  Li  Li4  1  0.796064  0.203936  0.597208  1
  Li  Li5  1  0.193061  0.806939  0.733361  1
  Fe  Fe6  1  0.790776  0.209224  0.258719  1
  Fe  Fe7  1  0.593542  0.406458  0.197807  1
  Fe  Fe8  1  0.403590  0.596410  0.474153  1
  Fe  Fe9  1  0.599435  0.400565  0.539605  1
  Fe  Fe10  1  0.400847  0.599153  0.795115  1
  Fe  Fe11  1  0.596285  0.403715  0.864419  1
  Fe  Fe12  1  0.792131  0.207869  0.937075  1
  O  O13  1  0.878188  0.121812  0.128939  1
  O  O14  1  0.693765  0.306235  0.064500  1
  O  O15  1  0.086304  0.913696  0.201617  1
  O  O16  1  0.304500  0.695500  0.287055  1
  O  O17  1  0.889012  0.110988  0.446802  1
  O  O18  1  0.692223  0.307777  0.382191  1
  O  O19  1  0.505372  0.494628  0.352688  1
  O  O20  1  0.315945  0.684055  0.605932  1
  O  O21  1  0.106873  0.893127  0.533055  1
  O  O22  1  0.497438  0.502562  0.672747  1
  O  O23  1  0.690357  0.309643  0.741080  1
  O  O24  1  0.888734  0.111266  0.816545  1
  O  O25  1  0.305779  0.694221  0.915018  1
  O  O26  1  0.096785  0.903215  0.864741  1
  O  O27  1  0.503303  0.496697  0.991874  1
