# generated using pymatgen
data_Li5Mn7O12
_symmetry_space_group_name_H-M   'P 1'
_cell_length_a   5.24589637
_cell_length_b   5.24589637
_cell_length_c   9.97329826
_cell_angle_alpha   84.95020609
_cell_angle_beta   95.04979391
_cell_angle_gamma   59.73479199
_symmetry_Int_Tables_number   1
_chemical_formula_structural   Li5Mn7O12
_chemical_formula_sum   'Li5 Mn7 O12'
_cell_volume   233.31885862
_cell_formula_units_Z   1
loop_
 _symmetry_equiv_pos_site_id
 _symmetry_equiv_pos_as_xyz
  1  'x, y, z'
loop_
 _atom_site_type_symbol
 _atom_site_label
 _atom_site_symmetry_multiplicity
 _atom_site_fract_x
 _atom_site_fract_y
 _atom_site_fract_z
 _atom_site_occupancy
  Li  Li0  1  0.335900  0.841886  0.753009  1
  Li  Li1  1  0.156307  0.667934  0.245180  1
  Li  Li2  1  0.841886  0.335900  0.246991  1
  Li  Li3  1  0.667934  0.156307  0.754820  1
  Li  Li4  1  0.084544  0.084544  0.000000  1
  Mn  Mn5  1  0.921298  0.921298  0.500000  1
  Mn  Mn6  1  0.491186  0.001735  0.244172  1
  Mn  Mn7  1  0.750712  0.750712  0.000000  1
  Mn  Mn8  1  0.001735  0.491186  0.755828  1
  Mn  Mn9  1  0.578587  0.578587  0.500000  1
  Mn  Mn10  1  0.422413  0.422413  0.000000  1
  Mn  Mn11  1  0.250060  0.250060  0.500000  1
  O  O12  1  0.775195  0.017781  0.119334  1
  O  O13  1  0.017781  0.775195  0.880666  1
  O  O14  1  0.608352  0.889661  0.617545  1
  O  O15  1  0.889661  0.608352  0.382455  1
  O  O16  1  0.482250  0.706051  0.115361  1
  O  O17  1  0.706051  0.482250  0.884639  1
  O  O18  1  0.275534  0.548815  0.625063  1
  O  O19  1  0.548815  0.275534  0.374937  1
  O  O20  1  0.127650  0.387592  0.118574  1
  O  O21  1  0.387592  0.127650  0.881426  1
  O  O22  1  0.960175  0.218382  0.630627  1
  O  O23  1  0.218382  0.960175  0.369373  1
