# generated using pymatgen
data_Ca(CuO)2
_symmetry_space_group_name_H-M   'P 1'
_cell_length_a   6.05882761
_cell_length_b   6.05882761
_cell_length_c   6.05882761
_cell_angle_alpha   127.76688904
_cell_angle_beta   127.76688904
_cell_angle_gamma   77.00296396
_symmetry_Int_Tables_number   1
_chemical_formula_structural   Ca(CuO)2
_chemical_formula_sum   'Ca2 Cu4 O4'
_cell_volume   134.91448976
_cell_formula_units_Z   2
loop_
 _symmetry_equiv_pos_site_id
 _symmetry_equiv_pos_as_xyz
  1  'x, y, z'
loop_
 _atom_site_type_symbol
 _atom_site_label
 _atom_site_symmetry_multiplicity
 _atom_site_fract_x
 _atom_site_fract_y
 _atom_site_fract_z
 _atom_site_occupancy
  Ca  Ca0  1  0.750000  0.250000  0.500000  1
  Ca  Ca1  1  0.000000  0.000000  0.000000  1
  Cu  Cu2  1  0.375000  0.625000  0.250000  1
  Cu  Cu3  1  0.375000  0.625000  0.750000  1
  Cu  Cu4  1  0.875000  0.625000  0.250000  1
  Cu  Cu5  1  0.375000  0.125000  0.750000  1
  O  O6  1  0.988929  0.488929  0.500000  1
  O  O7  1  0.761071  0.761071  0.000000  1
  O  O8  1  0.511071  0.011071  0.500000  1
  O  O9  1  0.238929  0.238929  0.000000  1
