# generated using pymatgen
data_V4OF11
_symmetry_space_group_name_H-M   'P 1'
_cell_length_a   5.27334123
_cell_length_b   5.44487932
_cell_length_c   17.45710482
_cell_angle_alpha   83.61875368
_cell_angle_beta   81.44041627
_cell_angle_gamma   61.18846747
_symmetry_Int_Tables_number   1
_chemical_formula_structural   V4OF11
_chemical_formula_sum   'V8 O2 F22'
_cell_volume   433.85052133
_cell_formula_units_Z   2
loop_
 _symmetry_equiv_pos_site_id
 _symmetry_equiv_pos_as_xyz
  1  'x, y, z'
loop_
 _atom_site_type_symbol
 _atom_site_label
 _atom_site_symmetry_multiplicity
 _atom_site_fract_x
 _atom_site_fract_y
 _atom_site_fract_z
 _atom_site_occupancy
  V  V0  1  0.241978  0.260278  0.752070  1
  V  V1  1  0.758022  0.739722  0.247930  1
  V  V2  1  0.879392  0.853615  0.870733  1
  V  V3  1  0.377364  0.370666  0.374508  1
  V  V4  1  0.500000  0.500000  0.000000  1
  V  V5  1  0.000000  0.000000  0.500000  1
  V  V6  1  0.622636  0.629334  0.625492  1
  V  V7  1  0.120608  0.146385  0.129267  1
  O  O8  1  0.024523  0.422204  0.184084  1
  O  O9  1  0.975477  0.577796  0.815916  1
  F  F10  1  0.464405  0.461307  0.713014  1
  F  F11  1  0.533914  0.942567  0.689152  1
  F  F12  1  0.257666  0.674822  0.913824  1
  F  F13  1  0.968716  0.954881  0.211379  1
  F  F14  1  0.767083  0.157713  0.411472  1
  F  F15  1  0.011884  0.412949  0.662656  1
  F  F16  1  0.031284  0.045119  0.788621  1
  F  F17  1  0.535595  0.538693  0.286986  1
  F  F18  1  0.742334  0.325178  0.086176  1
  F  F19  1  0.782541  0.180548  0.934783  1
  F  F20  1  0.466086  0.057433  0.310848  1
  F  F21  1  0.713044  0.714859  0.963014  1
  F  F22  1  0.512232  0.915283  0.160651  1
  F  F23  1  0.212942  0.212827  0.462426  1
  F  F24  1  0.232917  0.842287  0.588528  1
  F  F25  1  0.286956  0.285141  0.036986  1
  F  F26  1  0.487768  0.084717  0.839349  1
  F  F27  1  0.988116  0.587051  0.337344  1
  F  F28  1  0.293617  0.683980  0.437606  1
  F  F29  1  0.706383  0.316020  0.562394  1
  F  F30  1  0.217459  0.819452  0.065217  1
  F  F31  1  0.787058  0.787173  0.537574  1
