# generated using pymatgen
data_Li3Fe8(BO3)8
_symmetry_space_group_name_H-M   'P 1'
_cell_length_a   5.29285651
_cell_length_b   9.01982641
_cell_length_c   11.41498320
_cell_angle_alpha   113.23401924
_cell_angle_beta   102.47741856
_cell_angle_gamma   89.92798105
_symmetry_Int_Tables_number   1
_chemical_formula_structural   Li3Fe8(BO3)8
_chemical_formula_sum   'Li3 Fe8 B8 O24'
_cell_volume   486.78952627
_cell_formula_units_Z   1
loop_
 _symmetry_equiv_pos_site_id
 _symmetry_equiv_pos_as_xyz
  1  'x, y, z'
loop_
 _atom_site_type_symbol
 _atom_site_label
 _atom_site_symmetry_multiplicity
 _atom_site_fract_x
 _atom_site_fract_y
 _atom_site_fract_z
 _atom_site_occupancy
  Li  Li0  1  0.838974  0.186050  0.357332  1
  Li  Li1  1  0.390855  0.046230  0.097332  1
  Li  Li2  1  0.569996  0.905197  0.836253  1
  Fe  Fe3  1  0.598350  0.590235  0.861642  1
  Fe  Fe4  1  0.911054  0.881224  0.116798  1
  Fe  Fe5  1  0.150480  0.474209  0.622228  1
  Fe  Fe6  1  0.347973  0.017190  0.375665  1
  Fe  Fe7  1  0.660599  0.983571  0.625205  1
  Fe  Fe8  1  0.852732  0.528002  0.372394  1
  Fe  Fe9  1  0.088959  0.105686  0.873599  1
  Fe  Fe10  1  0.396466  0.402913  0.125427  1
  B  B11  1  0.350742  0.349292  0.364110  1
  B  B12  1  0.112917  0.770906  0.873122  1
  B  B13  1  0.858750  0.859727  0.374819  1
  B  B14  1  0.594354  0.265084  0.875493  1
  B  B15  1  0.134613  0.137676  0.615121  1
  B  B16  1  0.402690  0.728765  0.118762  1
  B  B17  1  0.655613  0.642997  0.622643  1
  B  B18  1  0.892506  0.234720  0.133805  1
  O  O19  1  0.865115  0.774078  0.900121  1
  O  O20  1  0.549163  0.540665  0.666977  1
  O  O21  1  0.771744  0.101695  0.136581  1
  O  O22  1  0.464982  0.209504  0.360617  1
  O  O23  1  0.113041  0.376964  0.398515  1
  O  O24  1  0.221887  0.625902  0.827704  1
  O  O25  1  0.700896  0.390749  0.860013  1
  O  O26  1  0.967588  0.968997  0.334299  1
  O  O27  1  0.308935  0.884936  0.170799  1
  O  O28  1  0.364885  0.090876  0.570506  1
  O  O29  1  0.015983  0.261330  0.598170  1
  O  O30  1  0.602961  0.716112  0.056086  1
  O  O31  1  0.392613  0.279446  0.938123  1
  O  O32  1  0.636418  0.903396  0.424045  1
  O  O33  1  0.686169  0.110283  0.826635  1
  O  O34  1  0.031604  0.042208  0.667858  1
  O  O35  1  0.293770  0.603860  0.132765  1
  O  O36  1  0.781890  0.383281  0.171460  1
  O  O37  1  0.858466  0.595549  0.560084  1
  O  O38  1  0.569630  0.794017  0.647045  1
  O  O39  1  0.962085  0.721959  0.366931  1
  O  O40  1  0.248985  0.914667  0.897764  1
  O  O41  1  0.469534  0.457852  0.328910  1
  O  O42  1  0.127737  0.225673  0.094840  1
