# generated using pymatgen
data_VOF3
_symmetry_space_group_name_H-M   'P 1'
_cell_length_a   4.91421846
_cell_length_b   5.65022373
_cell_length_c   10.07165869
_cell_angle_alpha   90.00000000
_cell_angle_beta   90.00000000
_cell_angle_gamma   90.00000000
_symmetry_Int_Tables_number   1
_chemical_formula_structural   VOF3
_chemical_formula_sum   'V4 O4 F12'
_cell_volume   279.65404384
_cell_formula_units_Z   4
loop_
 _symmetry_equiv_pos_site_id
 _symmetry_equiv_pos_as_xyz
  1  'x, y, z'
loop_
 _atom_site_type_symbol
 _atom_site_label
 _atom_site_symmetry_multiplicity
 _atom_site_fract_x
 _atom_site_fract_y
 _atom_site_fract_z
 _atom_site_occupancy
  V  V0  1  0.468683  0.114752  0.740212  1
  V  V1  1  0.468683  0.385248  0.240212  1
  V  V2  1  0.968683  0.614752  0.759788  1
  V  V3  1  0.968683  0.885248  0.259788  1
  O  O4  1  0.260904  0.187690  0.184421  1
  O  O5  1  0.260904  0.312310  0.684421  1
  O  O6  1  0.760904  0.812310  0.815579  1
  O  O7  1  0.760904  0.687690  0.315579  1
  F  F8  1  0.175245  0.554958  0.900602  1
  F  F9  1  0.175245  0.945042  0.400602  1
  F  F10  1  0.245264  0.825175  0.689431  1
  F  F11  1  0.245264  0.674825  0.189431  1
  F  F12  1  0.346866  0.058304  0.902833  1
  F  F13  1  0.346866  0.441696  0.402833  1
  F  F14  1  0.675245  0.054958  0.599398  1
  F  F15  1  0.675245  0.445042  0.099398  1
  F  F16  1  0.745264  0.325175  0.810569  1
  F  F17  1  0.745264  0.174825  0.310569  1
  F  F18  1  0.846866  0.941696  0.097167  1
  F  F19  1  0.846866  0.558304  0.597167  1
