# generated using pymatgen
data_Li4Cu(PO3)6
_symmetry_space_group_name_H-M   'P 1'
_cell_length_a   7.21406689
_cell_length_b   7.21406689
_cell_length_c   14.21937316
_cell_angle_alpha   85.29926815
_cell_angle_beta   94.70073185
_cell_angle_gamma   113.32539549
_symmetry_Int_Tables_number   1
_chemical_formula_structural   Li4Cu(PO3)6
_chemical_formula_sum   'Li8 Cu2 P12 O36'
_cell_volume   676.25751611
_cell_formula_units_Z   2
loop_
 _symmetry_equiv_pos_site_id
 _symmetry_equiv_pos_as_xyz
  1  'x, y, z'
loop_
 _atom_site_type_symbol
 _atom_site_label
 _atom_site_symmetry_multiplicity
 _atom_site_fract_x
 _atom_site_fract_y
 _atom_site_fract_z
 _atom_site_occupancy
  Li  Li0  1  0.962020  0.298490  0.071810  1
  Li  Li1  1  0.701510  0.037980  0.571810  1
  Li  Li2  1  0.774956  0.438869  0.453178  1
  Li  Li3  1  0.561131  0.225044  0.953178  1
  Li  Li4  1  0.438869  0.774956  0.046822  1
  Li  Li5  1  0.225044  0.561131  0.546822  1
  Li  Li6  1  0.298490  0.962020  0.428190  1
  Li  Li7  1  0.037980  0.701510  0.928190  1
  Cu  Cu8  1  0.364297  0.364297  0.250000  1
  Cu  Cu9  1  0.635703  0.635703  0.750000  1
  P  P10  1  0.961209  0.143705  0.387063  1
  P  P11  1  0.856295  0.038791  0.887063  1
  P  P12  1  0.628199  0.097156  0.245671  1
  P  P13  1  0.902844  0.371801  0.745671  1
  P  P14  1  0.770599  0.602974  0.109786  1
  P  P15  1  0.397026  0.229401  0.609786  1
  P  P16  1  0.602974  0.770599  0.390214  1
  P  P17  1  0.229401  0.397026  0.890214  1
  P  P18  1  0.097156  0.628199  0.254329  1
  P  P19  1  0.371801  0.902844  0.754329  1
  P  P20  1  0.143705  0.961209  0.112937  1
  P  P21  1  0.038791  0.856295  0.612937  1
  O  O22  1  0.861002  0.185435  0.286213  1
  O  O23  1  0.905703  0.241910  0.463271  1
  O  O24  1  0.814565  0.138998  0.786213  1
  O  O25  1  0.758090  0.094297  0.963271  1
  O  O26  1  0.628161  0.100681  0.141411  1
  O  O27  1  0.899319  0.371839  0.641411  1
  O  O28  1  0.816895  0.496989  0.033372  1
  O  O29  1  0.516255  0.200756  0.293433  1
  O  O30  1  0.866366  0.550559  0.210622  1
  O  O31  1  0.503011  0.183105  0.533372  1
  O  O32  1  0.799244  0.483745  0.793433  1
  O  O33  1  0.449441  0.133634  0.710622  1
  O  O34  1  0.900552  0.844823  0.096963  1
  O  O35  1  0.183296  0.177174  0.128703  1
  O  O36  1  0.557887  0.575652  0.124445  1
  O  O37  1  0.155177  0.099448  0.596963  1
  O  O38  1  0.575652  0.557887  0.375555  1
  O  O39  1  0.822826  0.816704  0.628703  1
  O  O40  1  0.177174  0.183296  0.371297  1
  O  O41  1  0.424348  0.442113  0.624445  1
  O  O42  1  0.844823  0.900552  0.403037  1
  O  O43  1  0.442113  0.424348  0.875555  1
  O  O44  1  0.816704  0.822826  0.871297  1
  O  O45  1  0.099448  0.155177  0.903037  1
  O  O46  1  0.550559  0.866366  0.289378  1
  O  O47  1  0.200756  0.516255  0.206567  1
  O  O48  1  0.496989  0.816895  0.466628  1
  O  O49  1  0.133634  0.449441  0.789378  1
  O  O50  1  0.483745  0.799244  0.706567  1
  O  O51  1  0.183105  0.503011  0.966628  1
  O  O52  1  0.100681  0.628161  0.358589  1
  O  O53  1  0.371839  0.899319  0.858589  1
  O  O54  1  0.241910  0.905703  0.036729  1
  O  O55  1  0.185435  0.861002  0.213787  1
  O  O56  1  0.094297  0.758090  0.536729  1
  O  O57  1  0.138998  0.814565  0.713787  1
