# generated using pymatgen
data_Mn3Fe(PO4)4
_symmetry_space_group_name_H-M   'P 1'
_cell_length_a   4.92070642
_cell_length_b   6.01260687
_cell_length_c   9.85369814
_cell_angle_alpha   90.00000000
_cell_angle_beta   90.27362869
_cell_angle_gamma   90.00000000
_symmetry_Int_Tables_number   1
_chemical_formula_structural   Mn3Fe(PO4)4
_chemical_formula_sum   'Mn3 Fe1 P4 O16'
_cell_volume   291.53088097
_cell_formula_units_Z   1
loop_
 _symmetry_equiv_pos_site_id
 _symmetry_equiv_pos_as_xyz
  1  'x, y, z'
loop_
 _atom_site_type_symbol
 _atom_site_label
 _atom_site_symmetry_multiplicity
 _atom_site_fract_x
 _atom_site_fract_y
 _atom_site_fract_z
 _atom_site_occupancy
  Mn  Mn0  1  0.929021  0.500000  0.714678  1
  Mn  Mn1  1  0.566809  0.500000  0.217710  1
  Mn  Mn2  1  0.431105  0.000000  0.785135  1
  Fe  Fe3  1  0.043475  0.000000  0.277018  1
  P  P4  1  0.912664  0.000000  0.600349  1
  P  P5  1  0.587008  0.000000  0.096793  1
  P  P6  1  0.417015  0.500000  0.900626  1
  P  P7  1  0.086292  0.500000  0.400224  1
  O  O8  1  0.852642  0.000000  0.447796  1
  O  O9  1  0.770892  0.200588  0.672004  1
  O  O10  1  0.770892  0.799412  0.672004  1
  O  O11  1  0.773739  0.500000  0.380893  1
  O  O12  1  0.726960  0.500000  0.880176  1
  O  O13  1  0.736870  0.198040  0.170823  1
  O  O14  1  0.736870  0.801960  0.170823  1
  O  O15  1  0.653971  0.000000  0.944960  1
  O  O16  1  0.359077  0.500000  0.054390  1
  O  O17  1  0.272610  0.700547  0.830402  1
  O  O18  1  0.272610  0.299453  0.830402  1
  O  O19  1  0.281523  0.000000  0.119548  1
  O  O20  1  0.223411  0.000000  0.621382  1
  O  O21  1  0.224704  0.702803  0.329033  1
  O  O22  1  0.224704  0.297197  0.329033  1
  O  O23  1  0.145134  0.500000  0.553801  1
