# generated using pymatgen
data_Li2SbS2
_symmetry_space_group_name_H-M   'P 1'
_cell_length_a   7.61808680
_cell_length_b   8.68949855
_cell_length_c   12.57277150
_cell_angle_alpha   90.00000000
_cell_angle_beta   90.00000000
_cell_angle_gamma   90.00000000
_symmetry_Int_Tables_number   1
_chemical_formula_structural   Li2SbS2
_chemical_formula_sum   'Li16 Sb8 S16'
_cell_volume   832.28420829
_cell_formula_units_Z   8
loop_
 _symmetry_equiv_pos_site_id
 _symmetry_equiv_pos_as_xyz
  1  'x, y, z'
loop_
 _atom_site_type_symbol
 _atom_site_label
 _atom_site_symmetry_multiplicity
 _atom_site_fract_x
 _atom_site_fract_y
 _atom_site_fract_z
 _atom_site_occupancy
  Li  Li0  1  0.840622  0.806004  0.734009  1
  Li  Li1  1  0.564965  0.379135  0.606809  1
  Li  Li2  1  0.889064  0.098977  0.611578  1
  Li  Li3  1  0.314219  0.032768  0.641156  1
  Li  Li4  1  0.814219  0.467232  0.358844  1
  Li  Li5  1  0.389064  0.401023  0.388422  1
  Li  Li6  1  0.064965  0.120865  0.393191  1
  Li  Li7  1  0.340622  0.693996  0.265991  1
  Li  Li8  1  0.659378  0.193996  0.234009  1
  Li  Li9  1  0.935035  0.620865  0.106809  1
  Li  Li10  1  0.610936  0.901023  0.111578  1
  Li  Li11  1  0.185781  0.967232  0.141156  1
  Li  Li12  1  0.685781  0.532768  0.858844  1
  Li  Li13  1  0.110936  0.598977  0.888422  1
  Li  Li14  1  0.435035  0.879135  0.893191  1
  Li  Li15  1  0.159378  0.306004  0.765991  1
  Sb  Sb16  1  0.322535  0.691662  0.631329  1
  Sb  Sb17  1  0.041639  0.506705  0.548344  1
  Sb  Sb18  1  0.541639  0.993295  0.451656  1
  Sb  Sb19  1  0.822535  0.808338  0.368671  1
  Sb  Sb20  1  0.177465  0.308338  0.131329  1
  Sb  Sb21  1  0.458361  0.493295  0.048344  1
  Sb  Sb22  1  0.958361  0.006705  0.951656  1
  Sb  Sb23  1  0.677465  0.191662  0.868671  1
  S  S24  1  0.607643  0.009869  0.720428  1
  S  S25  1  0.903728  0.475531  0.723093  1
  S  S26  1  0.224236  0.267778  0.545003  1
  S  S27  1  0.523896  0.611318  0.490812  1
  S  S28  1  0.023896  0.888682  0.509188  1
  S  S29  1  0.724236  0.232222  0.454997  1
  S  S30  1  0.403728  0.024469  0.276907  1
  S  S31  1  0.107643  0.490131  0.279572  1
  S  S32  1  0.892357  0.990131  0.220428  1
  S  S33  1  0.596272  0.524469  0.223093  1
  S  S34  1  0.275764  0.732222  0.045003  1
  S  S35  1  0.976104  0.388682  0.990812  1
  S  S36  1  0.476104  0.111318  0.009188  1
  S  S37  1  0.775764  0.767778  0.954997  1
  S  S38  1  0.096272  0.975531  0.776907  1
  S  S39  1  0.392357  0.509869  0.779572  1
