# generated using pymatgen
data_Li3V3(BO5)2
_symmetry_space_group_name_H-M   'P 1'
_cell_length_a   9.11917695
_cell_length_b   3.11792945
_cell_length_c   12.27952961
_cell_angle_alpha   90.00000000
_cell_angle_beta   90.02888487
_cell_angle_gamma   90.00000000
_symmetry_Int_Tables_number   1
_chemical_formula_structural   Li3V3(BO5)2
_chemical_formula_sum   'Li6 V6 B4 O20'
_cell_volume   349.14321135
_cell_formula_units_Z   2
loop_
 _symmetry_equiv_pos_site_id
 _symmetry_equiv_pos_as_xyz
  1  'x, y, z'
loop_
 _atom_site_type_symbol
 _atom_site_label
 _atom_site_symmetry_multiplicity
 _atom_site_fract_x
 _atom_site_fract_y
 _atom_site_fract_z
 _atom_site_occupancy
  Li  Li0  1  0.010720  0.000000  0.502535  1
  Li  Li1  1  0.748884  0.000000  0.883286  1
  Li  Li2  1  0.477684  0.500000  0.509156  1
  Li  Li3  1  0.506730  0.000000  0.992290  1
  Li  Li4  1  0.279113  0.000000  0.614962  1
  Li  Li5  1  0.242524  0.000000  0.111098  1
  V  V6  1  0.996596  0.500000  0.998123  1
  V  V7  1  0.005448  0.500000  0.708453  1
  V  V8  1  0.737246  0.000000  0.390422  1
  V  V9  1  0.493011  0.500000  0.208099  1
  V  V10  1  0.500257  0.500000  0.786461  1
  V  V11  1  0.009486  0.500000  0.285867  1
  B  B12  1  0.778266  0.000000  0.140946  1
  B  B13  1  0.718724  0.000000  0.640501  1
  B  B14  1  0.286546  0.000000  0.363628  1
  B  B15  1  0.217276  0.000000  0.858495  1
  O  O16  1  0.923855  0.500000  0.860627  1
  O  O17  1  0.883418  0.500000  0.415352  1
  O  O18  1  0.874047  0.000000  0.656371  1
  O  O19  1  0.855869  0.000000  0.239001  1
  O  O20  1  0.854776  0.000000  0.042588  1
  O  O21  1  0.656909  0.000000  0.540031  1
  O  O22  1  0.637938  0.000000  0.735803  1
  O  O23  1  0.627302  0.000000  0.144372  1
  O  O24  1  0.605015  0.500000  0.912259  1
  O  O25  1  0.610983  0.500000  0.338249  1
  O  O26  1  0.402499  0.500000  0.663485  1
  O  O27  1  0.393883  0.500000  0.087351  1
  O  O28  1  0.367065  0.000000  0.857161  1
  O  O29  1  0.369297  0.000000  0.264395  1
  O  O30  1  0.345455  0.000000  0.460949  1
  O  O31  1  0.139943  0.000000  0.957783  1
  O  O32  1  0.135921  0.000000  0.762461  1
  O  O33  1  0.130966  0.000000  0.344727  1
  O  O34  1  0.099584  0.500000  0.587980  1
  O  O35  1  0.076768  0.500000  0.134734  1
