# generated using pymatgen
data_BaP4O11
_symmetry_space_group_name_H-M   'P 1'
_cell_length_a   6.35096971
_cell_length_b   23.42396410
_cell_length_c   8.15421523
_cell_angle_alpha   90.00000000
_cell_angle_beta   106.78932612
_cell_angle_gamma   90.00000000
_symmetry_Int_Tables_number   1
_chemical_formula_structural   BaP4O11
_chemical_formula_sum   'Ba4 P16 O44'
_cell_volume   1161.35215050
_cell_formula_units_Z   4
loop_
 _symmetry_equiv_pos_site_id
 _symmetry_equiv_pos_as_xyz
  1  'x, y, z'
loop_
 _atom_site_type_symbol
 _atom_site_label
 _atom_site_symmetry_multiplicity
 _atom_site_fract_x
 _atom_site_fract_y
 _atom_site_fract_z
 _atom_site_occupancy
  Ba  Ba0  1  0.007343  0.886451  0.870321  1
  Ba  Ba1  1  0.007343  0.613549  0.370321  1
  Ba  Ba2  1  0.992657  0.386451  0.629679  1
  Ba  Ba3  1  0.992657  0.113549  0.129679  1
  P  P4  1  0.344250  0.573762  0.844200  1
  P  P5  1  0.410082  0.202740  0.950832  1
  P  P6  1  0.359210  0.180252  0.567380  1
  P  P7  1  0.416038  0.970644  0.699926  1
  P  P8  1  0.344250  0.926238  0.344200  1
  P  P9  1  0.410082  0.297260  0.450832  1
  P  P10  1  0.583962  0.470644  0.800074  1
  P  P11  1  0.640790  0.680252  0.932620  1
  P  P12  1  0.359210  0.319748  0.067380  1
  P  P13  1  0.416038  0.529356  0.199926  1
  P  P14  1  0.589918  0.702740  0.549168  1
  P  P15  1  0.655750  0.073762  0.655800  1
  P  P16  1  0.583962  0.029356  0.300074  1
  P  P17  1  0.640790  0.819748  0.432620  1
  P  P18  1  0.589918  0.797260  0.049168  1
  P  P19  1  0.655750  0.426238  0.155800  1
  O  O20  1  0.152157  0.343609  0.957154  1
  O  O21  1  0.151167  0.575084  0.691379  1
  O  O22  1  0.277475  0.550500  0.003914  1
  O  O23  1  0.257556  0.967096  0.801981  1
  O  O24  1  0.380639  0.829515  0.990121  1
  O  O25  1  0.152157  0.156391  0.457154  1
  O  O26  1  0.334181  0.204626  0.739963  1
  O  O27  1  0.212250  0.309657  0.507231  1
  O  O28  1  0.364198  0.443020  0.754693  1
  O  O29  1  0.471038  0.270942  0.986588  1
  O  O30  1  0.437243  0.636910  0.889645  1
  O  O31  1  0.151167  0.924916  0.191379  1
  O  O32  1  0.277475  0.949500  0.503914  1
  O  O33  1  0.257556  0.532904  0.301981  1
  O  O34  1  0.444128  0.039724  0.666016  1
  O  O35  1  0.380639  0.670485  0.490121  1
  O  O36  1  0.334181  0.295374  0.239963  1
  O  O37  1  0.212250  0.190343  0.007231  1
  O  O38  1  0.555872  0.539724  0.833984  1
  O  O39  1  0.364198  0.056980  0.254693  1
  O  O40  1  0.471038  0.229058  0.486588  1
  O  O41  1  0.437243  0.863090  0.389645  1
  O  O42  1  0.562757  0.136910  0.610355  1
  O  O43  1  0.528962  0.770942  0.513412  1
  O  O44  1  0.635802  0.943020  0.745307  1
  O  O45  1  0.444128  0.460276  0.166016  1
  O  O46  1  0.787750  0.809657  0.992769  1
  O  O47  1  0.665819  0.704626  0.760037  1
  O  O48  1  0.619361  0.329515  0.509879  1
  O  O49  1  0.555872  0.960276  0.333984  1
  O  O50  1  0.742444  0.467096  0.698019  1
  O  O51  1  0.722525  0.050500  0.496086  1
  O  O52  1  0.848833  0.075084  0.808621  1
  O  O53  1  0.562757  0.363090  0.110355  1
  O  O54  1  0.528962  0.729058  0.013412  1
  O  O55  1  0.635802  0.556980  0.245307  1
  O  O56  1  0.787750  0.690343  0.492769  1
  O  O57  1  0.665819  0.795374  0.260037  1
  O  O58  1  0.847843  0.843609  0.542846  1
  O  O59  1  0.619361  0.170485  0.009879  1
  O  O60  1  0.742444  0.032904  0.198019  1
  O  O61  1  0.722525  0.449500  0.996086  1
  O  O62  1  0.848833  0.424916  0.308621  1
  O  O63  1  0.847843  0.656391  0.042846  1
