# generated using pymatgen
data_Fe3(O2F)2
_symmetry_space_group_name_H-M   'P 1'
_cell_length_a   4.67974981
_cell_length_b   4.67974981
_cell_length_c   9.13208869
_cell_angle_alpha   90.00000000
_cell_angle_beta   90.00000000
_cell_angle_gamma   90.00000000
_symmetry_Int_Tables_number   1
_chemical_formula_structural   Fe3(O2F)2
_chemical_formula_sum   'Fe6 O8 F4'
_cell_volume   199.99327454
_cell_formula_units_Z   2
loop_
 _symmetry_equiv_pos_site_id
 _symmetry_equiv_pos_as_xyz
  1  'x, y, z'
loop_
 _atom_site_type_symbol
 _atom_site_label
 _atom_site_symmetry_multiplicity
 _atom_site_fract_x
 _atom_site_fract_y
 _atom_site_fract_z
 _atom_site_occupancy
  Fe  Fe0  1  0.500000  0.500000  0.681017  1
  Fe  Fe1  1  0.500000  0.500000  0.000000  1
  Fe  Fe2  1  0.500000  0.500000  0.318983  1
  Fe  Fe3  1  0.000000  0.000000  0.818983  1
  Fe  Fe4  1  0.000000  0.000000  0.500000  1
  Fe  Fe5  1  0.000000  0.000000  0.181017  1
  O  O6  1  0.693749  0.306251  0.843899  1
  O  O7  1  0.693749  0.306251  0.156101  1
  O  O8  1  0.806251  0.806251  0.656101  1
  O  O9  1  0.806251  0.806251  0.343899  1
  O  O10  1  0.193749  0.193749  0.656101  1
  O  O11  1  0.193749  0.193749  0.343899  1
  O  O12  1  0.306251  0.693749  0.843899  1
  O  O13  1  0.306251  0.693749  0.156101  1
  F  F14  1  0.688588  0.311412  0.500000  1
  F  F15  1  0.811412  0.811412  0.000000  1
  F  F16  1  0.188588  0.188588  0.000000  1
  F  F17  1  0.311412  0.688588  0.500000  1
