# generated using pymatgen
data_Li2MnCo3O8
_symmetry_space_group_name_H-M   'P 1'
_cell_length_a   5.67135031
_cell_length_b   5.67135031
_cell_length_c   9.16251490
_cell_angle_alpha   90.00000000
_cell_angle_beta   90.00000000
_cell_angle_gamma   120.00000000
_symmetry_Int_Tables_number   1
_chemical_formula_structural   Li2MnCo3O8
_chemical_formula_sum   'Li4 Mn2 Co6 O16'
_cell_volume   255.22209695
_cell_formula_units_Z   2
loop_
 _symmetry_equiv_pos_site_id
 _symmetry_equiv_pos_as_xyz
  1  'x, y, z'
loop_
 _atom_site_type_symbol
 _atom_site_label
 _atom_site_symmetry_multiplicity
 _atom_site_fract_x
 _atom_site_fract_y
 _atom_site_fract_z
 _atom_site_occupancy
  Li  Li0  1  0.333333  0.666667  0.896314  1
  Li  Li1  1  0.000000  0.000000  0.998342  1
  Li  Li2  1  0.000000  0.000000  0.498342  1
  Li  Li3  1  0.666667  0.333333  0.396314  1
  Mn  Mn4  1  0.333333  0.666667  0.484969  1
  Mn  Mn5  1  0.666667  0.333333  0.984969  1
  Co  Co6  1  0.167424  0.334848  0.210659  1
  Co  Co7  1  0.665152  0.832576  0.210659  1
  Co  Co8  1  0.167424  0.832576  0.210659  1
  Co  Co9  1  0.832576  0.167424  0.710659  1
  Co  Co10  1  0.334848  0.167424  0.710659  1
  Co  Co11  1  0.832576  0.665152  0.710659  1
  O  O12  1  0.162973  0.325945  0.603853  1
  O  O13  1  0.480130  0.519870  0.337386  1
  O  O14  1  0.333333  0.666667  0.107911  1
  O  O15  1  0.000000  0.000000  0.308149  1
  O  O16  1  0.000000  0.000000  0.808149  1
  O  O17  1  0.674055  0.837027  0.603853  1
  O  O18  1  0.039739  0.519870  0.337386  1
  O  O19  1  0.480130  0.960261  0.337386  1
  O  O20  1  0.837027  0.162973  0.103853  1
  O  O21  1  0.162973  0.837027  0.603853  1
  O  O22  1  0.519870  0.039739  0.837386  1
  O  O23  1  0.960261  0.480130  0.837386  1
  O  O24  1  0.666667  0.333333  0.607911  1
  O  O25  1  0.325945  0.162973  0.103853  1
  O  O26  1  0.519870  0.480130  0.837386  1
  O  O27  1  0.837027  0.674055  0.103853  1
