# generated using pymatgen
data_NaVAsCO7
_symmetry_space_group_name_H-M   'P 1'
_cell_length_a   5.43491916
_cell_length_b   6.53112623
_cell_length_c   9.30863086
_cell_angle_alpha   90.00000000
_cell_angle_beta   93.05209819
_cell_angle_gamma   90.00000000
_symmetry_Int_Tables_number   1
_chemical_formula_structural   NaVAsCO7
_chemical_formula_sum   'Na2 V2 As2 C2 O14'
_cell_volume   329.95180271
_cell_formula_units_Z   2
loop_
 _symmetry_equiv_pos_site_id
 _symmetry_equiv_pos_as_xyz
  1  'x, y, z'
loop_
 _atom_site_type_symbol
 _atom_site_label
 _atom_site_symmetry_multiplicity
 _atom_site_fract_x
 _atom_site_fract_y
 _atom_site_fract_z
 _atom_site_occupancy
  Na  Na0  1  0.763352  0.515386  0.222471  1
  Na  Na1  1  0.236648  0.015386  0.777529  1
  V  V2  1  0.210276  0.230601  0.329036  1
  V  V3  1  0.789724  0.730601  0.670964  1
  As  As4  1  0.283109  0.738740  0.438691  1
  As  As5  1  0.716891  0.238740  0.561309  1
  C  C6  1  0.276193  0.258408  0.076434  1
  C  C7  1  0.723807  0.758408  0.923566  1
  O  O8  1  0.690863  0.751190  0.052898  1
  O  O9  1  0.056527  0.257354  0.135670  1
  O  O10  1  0.454396  0.263899  0.182011  1
  O  O11  1  0.214244  0.949538  0.329087  1
  O  O12  1  0.199002  0.540157  0.328150  1
  O  O13  1  0.876298  0.257710  0.409095  1
  O  O14  1  0.595253  0.739166  0.479197  1
  O  O15  1  0.404747  0.239166  0.520803  1
  O  O16  1  0.123702  0.757710  0.590905  1
  O  O17  1  0.800998  0.040157  0.671850  1
  O  O18  1  0.785756  0.449538  0.670913  1
  O  O19  1  0.545604  0.763899  0.817989  1
  O  O20  1  0.943473  0.757354  0.864330  1
  O  O21  1  0.309137  0.251190  0.947102  1
