# generated using pymatgen
data_Li3La5Ti6Nb2O26
_symmetry_space_group_name_H-M   'P 1'
_cell_length_a   5.53132088
_cell_length_b   5.53364817
_cell_length_c   17.25704265
_cell_angle_alpha   90.00000000
_cell_angle_beta   98.99960301
_cell_angle_gamma   90.00000000
_symmetry_Int_Tables_number   1
_chemical_formula_structural   Li3La5Ti6Nb2O26
_chemical_formula_sum   'Li3 La5 Ti6 Nb2 O26'
_cell_volume   521.70761138
_cell_formula_units_Z   1
loop_
 _symmetry_equiv_pos_site_id
 _symmetry_equiv_pos_as_xyz
  1  'x, y, z'
loop_
 _atom_site_type_symbol
 _atom_site_label
 _atom_site_symmetry_multiplicity
 _atom_site_fract_x
 _atom_site_fract_y
 _atom_site_fract_z
 _atom_site_occupancy
  Li  Li0  1  0.500000  0.228765  0.500000  1
  Li  Li1  1  0.000000  0.759066  0.500000  1
  Li  Li2  1  0.000000  0.242648  0.500000  1
  La  La3  1  0.382039  0.002143  0.765813  1
  La  La4  1  0.115473  0.498695  0.235444  1
  La  La5  1  0.884527  0.498695  0.764556  1
  La  La6  1  0.500000  0.001043  0.000000  1
  La  La7  1  0.617961  0.002143  0.234187  1
  Ti  Ti8  1  0.179806  0.999698  0.361630  1
  Ti  Ti9  1  0.057567  0.999849  0.114546  1
  Ti  Ti10  1  0.442648  0.500314  0.886317  1
  Ti  Ti11  1  0.557352  0.500314  0.113683  1
  Ti  Ti12  1  0.942433  0.999849  0.885454  1
  Ti  Ti13  1  0.820194  0.999698  0.638370  1
  Nb  Nb14  1  0.322804  0.502933  0.636973  1
  Nb  Nb15  1  0.677196  0.502933  0.363027  1
  O  O16  1  0.583182  0.249458  0.660267  1
  O  O17  1  0.585851  0.750727  0.664019  1
  O  O18  1  0.678768  0.759937  0.879172  1
  O  O19  1  0.678917  0.240503  0.879091  1
  O  O20  1  0.219893  0.009356  0.464181  1
  O  O21  1  0.383972  0.498210  0.770291  1
  O  O22  1  0.111900  0.002615  0.228993  1
  O  O23  1  0.000000  0.999813  0.000000  1
  O  O24  1  0.255275  0.487600  0.529616  1
  O  O25  1  0.200692  0.240119  0.880007  1
  O  O26  1  0.199346  0.759240  0.878933  1
  O  O27  1  0.918881  0.251288  0.336751  1
  O  O28  1  0.920205  0.751177  0.339754  1
  O  O29  1  0.079795  0.751177  0.660246  1
  O  O30  1  0.081119  0.251288  0.663249  1
  O  O31  1  0.800654  0.759240  0.121067  1
  O  O32  1  0.799308  0.240119  0.119993  1
  O  O33  1  0.744725  0.487600  0.470384  1
  O  O34  1  0.888100  0.002615  0.771007  1
  O  O35  1  0.616028  0.498210  0.229709  1
  O  O36  1  0.500000  0.500381  0.000000  1
  O  O37  1  0.780107  0.009356  0.535819  1
  O  O38  1  0.321083  0.240503  0.120909  1
  O  O39  1  0.321232  0.759937  0.120828  1
  O  O40  1  0.414149  0.750727  0.335981  1
  O  O41  1  0.416818  0.249458  0.339733  1
