# generated using pymatgen
data_CoPO4
_symmetry_space_group_name_H-M   'P 1'
_cell_length_a   4.75901368
_cell_length_b   6.62282742
_cell_length_c   8.64480882
_cell_angle_alpha   90.00000000
_cell_angle_beta   90.00000000
_cell_angle_gamma   90.00000000
_symmetry_Int_Tables_number   1
_chemical_formula_structural   CoPO4
_chemical_formula_sum   'Co4 P4 O16'
_cell_volume   272.46817636
_cell_formula_units_Z   4
loop_
 _symmetry_equiv_pos_site_id
 _symmetry_equiv_pos_as_xyz
  1  'x, y, z'
loop_
 _atom_site_type_symbol
 _atom_site_label
 _atom_site_symmetry_multiplicity
 _atom_site_fract_x
 _atom_site_fract_y
 _atom_site_fract_z
 _atom_site_occupancy
  Co  Co0  1  0.000000  0.500000  0.000000  1
  Co  Co1  1  0.000000  0.000000  0.000000  1
  Co  Co2  1  0.500000  0.500000  0.500000  1
  Co  Co3  1  0.500000  0.000000  0.500000  1
  P  P4  1  0.536739  0.750000  0.176166  1
  P  P5  1  0.036739  0.250000  0.323834  1
  P  P6  1  0.963261  0.750000  0.676166  1
  P  P7  1  0.463261  0.250000  0.823834  1
  O  O8  1  0.231536  0.750000  0.114482  1
  O  O9  1  0.688990  0.558005  0.119536  1
  O  O10  1  0.688990  0.941995  0.119536  1
  O  O11  1  0.063312  0.250000  0.143738  1
  O  O12  1  0.563312  0.750000  0.356262  1
  O  O13  1  0.188990  0.441995  0.380464  1
  O  O14  1  0.188990  0.058005  0.380464  1
  O  O15  1  0.731536  0.250000  0.385518  1
  O  O16  1  0.268464  0.750000  0.614482  1
  O  O17  1  0.811010  0.941995  0.619536  1
  O  O18  1  0.811010  0.558005  0.619536  1
  O  O19  1  0.436688  0.250000  0.643738  1
  O  O20  1  0.936688  0.750000  0.856262  1
  O  O21  1  0.311010  0.058005  0.880464  1
  O  O22  1  0.311010  0.441995  0.880464  1
  O  O23  1  0.768464  0.250000  0.885518  1
