# generated using pymatgen
data_YScO3
_symmetry_space_group_name_H-M   'P 1'
_cell_length_a   6.21724297
_cell_length_b   6.21724297
_cell_length_c   12.29962708
_cell_angle_alpha   90.00000000
_cell_angle_beta   90.00000000
_cell_angle_gamma   120.00000000
_symmetry_Int_Tables_number   1
_chemical_formula_structural   YScO3
_chemical_formula_sum   'Y6 Sc6 O18'
_cell_volume   411.73544502
_cell_formula_units_Z   6
loop_
 _symmetry_equiv_pos_site_id
 _symmetry_equiv_pos_as_xyz
  1  'x, y, z'
loop_
 _atom_site_type_symbol
 _atom_site_label
 _atom_site_symmetry_multiplicity
 _atom_site_fract_x
 _atom_site_fract_y
 _atom_site_fract_z
 _atom_site_occupancy
  Y  Y0  1  0.333333  0.666667  0.235687  1
  Y  Y1  1  0.000000  0.000000  0.275207  1
  Y  Y2  1  0.000000  0.000000  0.775207  1
  Y  Y3  1  0.333333  0.666667  0.735687  1
  Y  Y4  1  0.666667  0.333333  0.735687  1
  Y  Y5  1  0.666667  0.333333  0.235687  1
  Sc  Sc6  1  0.000000  0.666189  0.501889  1
  Sc  Sc7  1  0.000000  0.333811  0.001889  1
  Sc  Sc8  1  0.333811  0.333811  0.501889  1
  Sc  Sc9  1  0.666189  0.666189  0.001889  1
  Sc  Sc10  1  0.333811  0.000000  0.001889  1
  Sc  Sc11  1  0.666189  0.000000  0.501889  1
  O  O12  1  0.000000  0.692044  0.669315  1
  O  O13  1  0.000000  0.641095  0.335792  1
  O  O14  1  0.000000  0.358905  0.835792  1
  O  O15  1  0.000000  0.307956  0.169315  1
  O  O16  1  0.333333  0.666667  0.021841  1
  O  O17  1  0.000000  0.000000  0.476389  1
  O  O18  1  0.000000  0.000000  0.976389  1
  O  O19  1  0.333333  0.666667  0.521841  1
  O  O20  1  0.307956  0.307956  0.669315  1
  O  O21  1  0.358905  0.358905  0.335792  1
  O  O22  1  0.307956  0.000000  0.169315  1
  O  O23  1  0.641095  0.641095  0.835792  1
  O  O24  1  0.692044  0.692044  0.169315  1
  O  O25  1  0.358905  0.000000  0.835792  1
  O  O26  1  0.666667  0.333333  0.521841  1
  O  O27  1  0.666667  0.333333  0.021841  1
  O  O28  1  0.641095  0.000000  0.335792  1
  O  O29  1  0.692044  0.000000  0.669315  1
