# generated using pymatgen
data_Ni(IO3)2
_symmetry_space_group_name_H-M   'P 1'
_cell_length_a   5.20093704
_cell_length_b   6.89597487
_cell_length_c   14.69710671
_cell_angle_alpha   90.00000000
_cell_angle_beta   90.00000000
_cell_angle_gamma   90.00000000
_symmetry_Int_Tables_number   1
_chemical_formula_structural   Ni(IO3)2
_chemical_formula_sum   'Ni4 I8 O24'
_cell_volume   527.11953820
_cell_formula_units_Z   4
loop_
 _symmetry_equiv_pos_site_id
 _symmetry_equiv_pos_as_xyz
  1  'x, y, z'
loop_
 _atom_site_type_symbol
 _atom_site_label
 _atom_site_symmetry_multiplicity
 _atom_site_fract_x
 _atom_site_fract_y
 _atom_site_fract_z
 _atom_site_occupancy
  Ni  Ni0  1  0.750000  0.627662  0.000000  1
  Ni  Ni1  1  0.250000  0.372338  0.000000  1
  Ni  Ni2  1  0.250000  0.872338  0.500000  1
  Ni  Ni3  1  0.750000  0.127662  0.500000  1
  I  I4  1  0.232749  0.781829  0.147563  1
  I  I5  1  0.732749  0.218171  0.147563  1
  I  I6  1  0.732749  0.718171  0.352437  1
  I  I7  1  0.232749  0.281829  0.352437  1
  I  I8  1  0.767251  0.718171  0.647563  1
  I  I9  1  0.267251  0.281829  0.647563  1
  I  I10  1  0.267251  0.781829  0.852437  1
  I  I11  1  0.767251  0.218171  0.852437  1
  O  O12  1  0.910673  0.400833  0.077261  1
  O  O13  1  0.410673  0.599167  0.077261  1
  O  O14  1  0.941479  0.827759  0.078790  1
  O  O15  1  0.441479  0.172241  0.078790  1
  O  O16  1  0.608849  0.872732  0.262945  1
  O  O17  1  0.108849  0.127268  0.262945  1
  O  O18  1  0.608849  0.372732  0.237055  1
  O  O19  1  0.108849  0.627268  0.237055  1
  O  O20  1  0.441479  0.672241  0.421210  1
  O  O21  1  0.941479  0.327759  0.421210  1
  O  O22  1  0.910673  0.900833  0.422739  1
  O  O23  1  0.410673  0.099167  0.422739  1
  O  O24  1  0.589327  0.900833  0.577261  1
  O  O25  1  0.089327  0.099167  0.577261  1
  O  O26  1  0.058521  0.672241  0.578790  1
  O  O27  1  0.558521  0.327759  0.578790  1
  O  O28  1  0.391151  0.627268  0.762945  1
  O  O29  1  0.891151  0.372732  0.762945  1
  O  O30  1  0.891151  0.872732  0.737055  1
  O  O31  1  0.391151  0.127268  0.737055  1
  O  O32  1  0.558521  0.827759  0.921210  1
  O  O33  1  0.058521  0.172241  0.921210  1
  O  O34  1  0.089327  0.599167  0.922739  1
  O  O35  1  0.589327  0.400833  0.922739  1
