# generated using pymatgen
data_Na2BiO3
_symmetry_space_group_name_H-M   'P 1'
_cell_length_a   5.87931777
_cell_length_b   5.87931777
_cell_length_c   5.88099160
_cell_angle_alpha   79.12836832
_cell_angle_beta   100.87163168
_cell_angle_gamma   62.07970783
_symmetry_Int_Tables_number   1
_chemical_formula_structural   Na2BiO3
_chemical_formula_sum   'Na4 Bi2 O6'
_cell_volume   167.17456500
_cell_formula_units_Z   2
loop_
 _symmetry_equiv_pos_site_id
 _symmetry_equiv_pos_as_xyz
  1  'x, y, z'
loop_
 _atom_site_type_symbol
 _atom_site_label
 _atom_site_symmetry_multiplicity
 _atom_site_fract_x
 _atom_site_fract_y
 _atom_site_fract_z
 _atom_site_occupancy
  Na  Na0  1  0.917868  0.917868  0.750000  1
  Na  Na1  1  0.244529  0.244529  0.750000  1
  Na  Na2  1  0.755471  0.755471  0.250000  1
  Na  Na3  1  0.082132  0.082132  0.250000  1
  Bi  Bi4  1  0.590932  0.590932  0.750000  1
  Bi  Bi5  1  0.409068  0.409068  0.250000  1
  O  O6  1  0.218832  0.644773  0.498463  1
  O  O7  1  0.355227  0.781168  0.998463  1
  O  O8  1  0.500000  0.000000  0.500000  1
  O  O9  1  0.781168  0.355227  0.501537  1
  O  O10  1  1.000000  0.500000  0.000000  1
  O  O11  1  0.644773  0.218832  0.001537  1
