# generated using pymatgen
data_K2NdPCO7
_symmetry_space_group_name_H-M   'P 1'
_cell_length_a   5.78147135
_cell_length_b   7.33579480
_cell_length_c   10.10280086
_cell_angle_alpha   90.00000000
_cell_angle_beta   93.14045742
_cell_angle_gamma   90.00000000
_symmetry_Int_Tables_number   1
_chemical_formula_structural   K2NdPCO7
_chemical_formula_sum   'K4 Nd2 P2 C2 O14'
_cell_volume   427.83336151
_cell_formula_units_Z   2
loop_
 _symmetry_equiv_pos_site_id
 _symmetry_equiv_pos_as_xyz
  1  'x, y, z'
loop_
 _atom_site_type_symbol
 _atom_site_label
 _atom_site_symmetry_multiplicity
 _atom_site_fract_x
 _atom_site_fract_y
 _atom_site_fract_z
 _atom_site_occupancy
  K  K0  1  0.244282  0.012645  0.213633  1
  K  K1  1  0.244282  0.487355  0.213633  1
  K  K2  1  0.755718  0.512645  0.786367  1
  K  K3  1  0.755718  0.987355  0.786367  1
  Nd  Nd4  1  0.782494  0.750000  0.377388  1
  Nd  Nd5  1  0.217506  0.250000  0.622612  1
  P  P6  1  0.708694  0.250000  0.426654  1
  P  P7  1  0.291306  0.750000  0.573346  1
  C  C8  1  0.731826  0.750000  0.093529  1
  C  C9  1  0.268174  0.250000  0.906471  1
  O  O10  1  0.303946  0.250000  0.031073  1
  O  O11  1  0.939043  0.750000  0.153707  1
  O  O12  1  0.557719  0.750000  0.174393  1
  O  O13  1  0.789435  0.075064  0.356137  1
  O  O14  1  0.789435  0.424936  0.356137  1
  O  O15  1  0.183619  0.750000  0.426877  1
  O  O16  1  0.438406  0.250000  0.431396  1
  O  O17  1  0.561594  0.750000  0.568604  1
  O  O18  1  0.816381  0.250000  0.573123  1
  O  O19  1  0.210565  0.575064  0.643863  1
  O  O20  1  0.210565  0.924936  0.643863  1
  O  O21  1  0.442281  0.250000  0.825607  1
  O  O22  1  0.060957  0.250000  0.846293  1
  O  O23  1  0.696054  0.750000  0.968927  1
