# generated using pymatgen
data_SnPHO5
_symmetry_space_group_name_H-M   'P 1'
_cell_length_a   5.30509434
_cell_length_b   5.35843579
_cell_length_c   7.55384517
_cell_angle_alpha   109.52439897
_cell_angle_beta   105.66034010
_cell_angle_gamma   96.94018384
_symmetry_Int_Tables_number   1
_chemical_formula_structural   SnPHO5
_chemical_formula_sum   'Sn2 P2 H2 O10'
_cell_volume   189.53026931
_cell_formula_units_Z   2
loop_
 _symmetry_equiv_pos_site_id
 _symmetry_equiv_pos_as_xyz
  1  'x, y, z'
loop_
 _atom_site_type_symbol
 _atom_site_label
 _atom_site_symmetry_multiplicity
 _atom_site_fract_x
 _atom_site_fract_y
 _atom_site_fract_z
 _atom_site_occupancy
  Sn  Sn0  1  0.000000  0.000000  0.500000  1
  Sn  Sn1  1  0.000000  0.000000  0.000000  1
  P  P2  1  0.331800  0.646323  0.227299  1
  P  P3  1  0.668200  0.353677  0.772701  1
  H  H4  1  0.639810  0.966399  0.336953  1
  H  H5  1  0.360190  0.033601  0.663047  1
  O  O6  1  0.157047  0.954528  0.721123  1
  O  O7  1  0.295155  0.805473  0.374790  1
  O  O8  1  0.696692  0.652550  0.660380  1
  O  O9  1  0.627061  0.758580  0.064071  1
  O  O10  1  0.115328  0.668307  0.134721  1
  O  O11  1  0.884672  0.331693  0.865279  1
  O  O12  1  0.372939  0.241420  0.935929  1
  O  O13  1  0.303308  0.347450  0.339620  1
  O  O14  1  0.704845  0.194527  0.625210  1
  O  O15  1  0.842953  0.045472  0.278877  1
