# generated using pymatgen
data_Li2Ti2V3O10
_symmetry_space_group_name_H-M   'P 1'
_cell_length_a   5.12430677
_cell_length_b   5.17794392
_cell_length_c   7.71557461
_cell_angle_alpha   75.72579710
_cell_angle_beta   76.51487055
_cell_angle_gamma   78.78519340
_symmetry_Int_Tables_number   1
_chemical_formula_structural   Li2Ti2V3O10
_chemical_formula_sum   'Li2 Ti2 V3 O10'
_cell_volume   190.88084781
_cell_formula_units_Z   1
loop_
 _symmetry_equiv_pos_site_id
 _symmetry_equiv_pos_as_xyz
  1  'x, y, z'
loop_
 _atom_site_type_symbol
 _atom_site_label
 _atom_site_symmetry_multiplicity
 _atom_site_fract_x
 _atom_site_fract_y
 _atom_site_fract_z
 _atom_site_occupancy
  Li  Li0  1  0.532297  0.772195  0.401347  1
  Li  Li1  1  0.467703  0.227805  0.598653  1
  Ti  Ti2  1  0.013358  0.877447  0.684209  1
  Ti  Ti3  1  0.986642  0.122553  0.315791  1
  V  V4  1  0.500000  0.000000  0.000000  1
  V  V5  1  0.966970  0.315768  0.897095  1
  V  V6  1  0.033030  0.684232  0.102905  1
  O  O7  1  0.211061  0.953131  0.862769  1
  O  O8  1  0.771787  0.928014  0.516794  1
  O  O9  1  0.778319  0.681424  0.940145  1
  O  O10  1  0.267446  0.799174  0.218163  1
  O  O11  1  0.178534  0.527760  0.685812  1
  O  O12  1  0.821466  0.472240  0.314188  1
  O  O13  1  0.732554  0.200826  0.781837  1
  O  O14  1  0.221681  0.318576  0.059855  1
  O  O15  1  0.228213  0.071986  0.483206  1
  O  O16  1  0.788939  0.046869  0.137231  1
