# generated using pymatgen
data_Li3CoPCO7
_symmetry_space_group_name_H-M   'P 1'
_cell_length_a   9.44849501
_cell_length_b   6.39067281
_cell_length_c   9.84752655
_cell_angle_alpha   90.00000000
_cell_angle_beta   116.31341597
_cell_angle_gamma   90.00000000
_symmetry_Int_Tables_number   1
_chemical_formula_structural   Li3CoPCO7
_chemical_formula_sum   'Li12 Co4 P4 C4 O28'
_cell_volume   533.00321446
_cell_formula_units_Z   4
loop_
 _symmetry_equiv_pos_site_id
 _symmetry_equiv_pos_as_xyz
  1  'x, y, z'
loop_
 _atom_site_type_symbol
 _atom_site_label
 _atom_site_symmetry_multiplicity
 _atom_site_fract_x
 _atom_site_fract_y
 _atom_site_fract_z
 _atom_site_occupancy
  Li  Li0  1  0.098255  0.250922  0.681373  1
  Li  Li1  1  0.098255  0.249078  0.181373  1
  Li  Li2  1  0.279226  0.012988  0.508436  1
  Li  Li3  1  0.279226  0.487012  0.008436  1
  Li  Li4  1  0.346524  0.753133  0.313160  1
  Li  Li5  1  0.346524  0.746867  0.813160  1
  Li  Li6  1  0.653476  0.246867  0.686840  1
  Li  Li7  1  0.653476  0.253133  0.186840  1
  Li  Li8  1  0.720774  0.987012  0.491564  1
  Li  Li9  1  0.720774  0.512988  0.991564  1
  Li  Li10  1  0.901745  0.749078  0.318627  1
  Li  Li11  1  0.901745  0.750922  0.818627  1
  Co  Co12  1  0.275766  0.493778  0.511438  1
  Co  Co13  1  0.275766  0.006222  0.011438  1
  Co  Co14  1  0.724234  0.506222  0.488562  1
  Co  Co15  1  0.724234  0.993778  0.988562  1
  P  P16  1  0.408679  0.247576  0.314283  1
  P  P17  1  0.408679  0.252424  0.814283  1
  P  P18  1  0.591321  0.752424  0.685717  1
  P  P19  1  0.591321  0.747576  0.185717  1
  C  C20  1  0.038346  0.741429  0.621639  1
  C  C21  1  0.038346  0.758571  0.121639  1
  C  C22  1  0.961654  0.258571  0.378361  1
  C  C23  1  0.961654  0.241429  0.878361  1
  O  O24  1  0.068939  0.747579  0.260768  1
  O  O25  1  0.068939  0.752421  0.760768  1
  O  O26  1  0.110718  0.262584  0.484945  1
  O  O27  1  0.148510  0.738479  0.577015  1
  O  O28  1  0.110718  0.237416  0.984945  1
  O  O29  1  0.148510  0.761521  0.077015  1
  O  O30  1  0.314133  0.056653  0.321638  1
  O  O31  1  0.309931  0.440959  0.320729  1
  O  O32  1  0.309931  0.059041  0.820729  1
  O  O33  1  0.314133  0.443347  0.821638  1
  O  O34  1  0.420624  0.744665  0.554365  1
  O  O35  1  0.420947  0.252082  0.661066  1
  O  O36  1  0.420624  0.755335  0.054365  1
  O  O37  1  0.420947  0.247918  0.161066  1
  O  O38  1  0.579053  0.747918  0.338934  1
  O  O39  1  0.579376  0.255335  0.445635  1
  O  O40  1  0.579053  0.752082  0.838934  1
  O  O41  1  0.579376  0.244665  0.945635  1
  O  O42  1  0.685867  0.943347  0.678362  1
  O  O43  1  0.690069  0.559041  0.679271  1
  O  O44  1  0.690069  0.940959  0.179271  1
  O  O45  1  0.685867  0.556653  0.178362  1
  O  O46  1  0.851490  0.261521  0.422985  1
  O  O47  1  0.889282  0.737416  0.515055  1
  O  O48  1  0.851490  0.238479  0.922985  1
  O  O49  1  0.889282  0.762584  0.015055  1
  O  O50  1  0.931061  0.252421  0.739232  1
  O  O51  1  0.931061  0.247579  0.239232  1
