# generated using pymatgen
data_Mn11Pd21
_symmetry_space_group_name_H-M   'P 1'
_cell_length_a   8.09659879
_cell_length_b   8.09659879
_cell_length_c   7.43755435
_cell_angle_alpha   90.00000000
_cell_angle_beta   90.00000000
_cell_angle_gamma   90.00000000
_symmetry_Int_Tables_number   1
_chemical_formula_structural   Mn11Pd21
_chemical_formula_sum   'Mn11 Pd21'
_cell_volume   487.56822006
_cell_formula_units_Z   1
loop_
 _symmetry_equiv_pos_site_id
 _symmetry_equiv_pos_as_xyz
  1  'x, y, z'
loop_
 _atom_site_type_symbol
 _atom_site_label
 _atom_site_symmetry_multiplicity
 _atom_site_fract_x
 _atom_site_fract_y
 _atom_site_fract_z
 _atom_site_occupancy
  Mn  Mn0  1  0.500000  0.000000  0.500000  1
  Mn  Mn1  1  0.242958  0.242958  0.000000  1
  Mn  Mn2  1  0.250678  0.250678  0.500000  1
  Mn  Mn3  1  0.757042  0.242958  0.000000  1
  Mn  Mn4  1  0.749322  0.250678  0.500000  1
  Mn  Mn5  1  0.000000  0.500000  0.500000  1
  Mn  Mn6  1  0.500000  0.500000  0.000000  1
  Mn  Mn7  1  0.242958  0.757042  0.000000  1
  Mn  Mn8  1  0.250678  0.749322  0.500000  1
  Mn  Mn9  1  0.757042  0.757042  0.000000  1
  Mn  Mn10  1  0.749322  0.749322  0.500000  1
  Pd  Pd11  1  0.000000  0.000000  0.000000  1
  Pd  Pd12  1  0.000000  0.000000  0.500000  1
  Pd  Pd13  1  0.253201  0.000000  0.257031  1
  Pd  Pd14  1  0.500000  0.000000  0.000000  1
  Pd  Pd15  1  0.253201  0.000000  0.742969  1
  Pd  Pd16  1  0.746799  0.000000  0.257031  1
  Pd  Pd17  1  0.746799  0.000000  0.742969  1
  Pd  Pd18  1  0.000000  0.253201  0.257031  1
  Pd  Pd19  1  0.000000  0.253201  0.742969  1
  Pd  Pd20  1  0.500000  0.250693  0.247940  1
  Pd  Pd21  1  0.500000  0.250693  0.752060  1
  Pd  Pd22  1  0.000000  0.500000  0.000000  1
  Pd  Pd23  1  0.250693  0.500000  0.247940  1
  Pd  Pd24  1  0.250693  0.500000  0.752060  1
  Pd  Pd25  1  0.500000  0.500000  0.500000  1
  Pd  Pd26  1  0.749307  0.500000  0.247940  1
  Pd  Pd27  1  0.749307  0.500000  0.752060  1
  Pd  Pd28  1  0.000000  0.746799  0.257031  1
  Pd  Pd29  1  0.000000  0.746799  0.742969  1
  Pd  Pd30  1  0.500000  0.749307  0.247940  1
  Pd  Pd31  1  0.500000  0.749307  0.752060  1
