# generated using pymatgen
data_Cr4(OF3)3
_symmetry_space_group_name_H-M   'P 1'
_cell_length_a   5.03302286
_cell_length_b   5.30604842
_cell_length_c   8.82358681
_cell_angle_alpha   107.36542747
_cell_angle_beta   89.54830665
_cell_angle_gamma   117.85082299
_symmetry_Int_Tables_number   1
_chemical_formula_structural   Cr4(OF3)3
_chemical_formula_sum   'Cr4 O3 F9'
_cell_volume   196.41610560
_cell_formula_units_Z   1
loop_
 _symmetry_equiv_pos_site_id
 _symmetry_equiv_pos_as_xyz
  1  'x, y, z'
loop_
 _atom_site_type_symbol
 _atom_site_label
 _atom_site_symmetry_multiplicity
 _atom_site_fract_x
 _atom_site_fract_y
 _atom_site_fract_z
 _atom_site_occupancy
  Cr  Cr0  1  0.255376  0.753020  0.750655  1
  Cr  Cr1  1  0.489721  0.507308  0.501494  1
  Cr  Cr2  1  0.730290  0.243938  0.243959  1
  Cr  Cr3  1  0.031545  0.997822  0.006467  1
  O  O4  1  0.178554  0.827118  0.912238  1
  O  O5  1  0.311312  0.057346  0.183576  1
  O  O6  1  0.320997  0.676224  0.589365  1
  F  F7  1  0.175803  0.431752  0.315565  1
  F  F8  1  0.251232  0.121412  0.621987  1
  F  F9  1  0.254472  0.378974  0.878583  1
  F  F10  1  0.680036  0.321041  0.433141  1
  F  F11  1  0.687934  0.938742  0.819259  1
  F  F12  1  0.760724  0.626509  0.122469  1
  F  F13  1  0.736901  0.875341  0.374367  1
  F  F14  1  0.818758  0.180824  0.061635  1
  F  F15  1  0.816344  0.562628  0.685240  1
