# generated using pymatgen
data_Sr2CaI6
_symmetry_space_group_name_H-M   'P 1'
_cell_length_a   10.01572316
_cell_length_b   16.95954509
_cell_length_c   11.27688658
_cell_angle_alpha   90.00000000
_cell_angle_beta   122.70769019
_cell_angle_gamma   90.00000000
_symmetry_Int_Tables_number   1
_chemical_formula_structural   Sr2CaI6
_chemical_formula_sum   'Sr8 Ca4 I24'
_cell_volume   1611.78823180
_cell_formula_units_Z   4
loop_
 _symmetry_equiv_pos_site_id
 _symmetry_equiv_pos_as_xyz
  1  'x, y, z'
loop_
 _atom_site_type_symbol
 _atom_site_label
 _atom_site_symmetry_multiplicity
 _atom_site_fract_x
 _atom_site_fract_y
 _atom_site_fract_z
 _atom_site_occupancy
  Sr  Sr0  1  0.187787  0.578592  0.234080  1
  Sr  Sr1  1  0.812213  0.078592  0.265920  1
  Sr  Sr2  1  0.764241  0.753975  0.280708  1
  Sr  Sr3  1  0.235759  0.253975  0.219292  1
  Sr  Sr4  1  0.764241  0.746025  0.780708  1
  Sr  Sr5  1  0.235759  0.246025  0.719292  1
  Sr  Sr6  1  0.187787  0.921408  0.734080  1
  Sr  Sr7  1  0.812213  0.421408  0.765920  1
  Ca  Ca8  1  0.668121  0.406343  0.205547  1
  Ca  Ca9  1  0.331879  0.906343  0.294453  1
  Ca  Ca10  1  0.668121  0.093657  0.705547  1
  Ca  Ca11  1  0.331879  0.593657  0.794453  1
  I  I12  1  0.599903  0.587100  0.126175  1
  I  I13  1  0.574961  0.926490  0.191509  1
  I  I14  1  0.925182  0.420307  0.109400  1
  I  I15  1  0.549506  0.228760  0.164565  1
  I  I16  1  0.450494  0.728760  0.335435  1
  I  I17  1  0.909156  0.101836  0.034093  1
  I  I18  1  0.425039  0.426490  0.308491  1
  I  I19  1  0.946545  0.730907  0.116732  1
  I  I20  1  0.053455  0.230907  0.383268  1
  I  I21  1  0.599903  0.912900  0.626175  1
  I  I22  1  0.090844  0.601836  0.465907  1
  I  I23  1  0.925182  0.079693  0.609400  1
  I  I24  1  0.074818  0.920307  0.390600  1
  I  I25  1  0.909156  0.398164  0.534093  1
  I  I26  1  0.400097  0.087100  0.373825  1
  I  I27  1  0.946545  0.769093  0.616732  1
  I  I28  1  0.053455  0.269093  0.883268  1
  I  I29  1  0.574961  0.573510  0.691509  1
  I  I30  1  0.090844  0.898164  0.965907  1
  I  I31  1  0.549506  0.271240  0.664565  1
  I  I32  1  0.450494  0.771240  0.835435  1
  I  I33  1  0.074818  0.579693  0.890600  1
  I  I34  1  0.425039  0.073510  0.808491  1
  I  I35  1  0.400097  0.412900  0.873825  1
