# generated using pymatgen
data_Fe3Co7O20
_symmetry_space_group_name_H-M   'P 1'
_cell_length_a   5.78963987
_cell_length_b   2.89538211
_cell_length_c   20.58771034
_cell_angle_alpha   90.00000000
_cell_angle_beta   97.75987143
_cell_angle_gamma   90.00000000
_symmetry_Int_Tables_number   1
_chemical_formula_structural   Fe3Co7O20
_chemical_formula_sum   'Fe3 Co7 O20'
_cell_volume   341.95596036
_cell_formula_units_Z   1
loop_
 _symmetry_equiv_pos_site_id
 _symmetry_equiv_pos_as_xyz
  1  'x, y, z'
loop_
 _atom_site_type_symbol
 _atom_site_label
 _atom_site_symmetry_multiplicity
 _atom_site_fract_x
 _atom_site_fract_y
 _atom_site_fract_z
 _atom_site_occupancy
  Fe  Fe0  1  0.098656  0.000000  0.200962  1
  Fe  Fe1  1  0.500000  0.000000  0.000000  1
  Fe  Fe2  1  0.901344  0.000000  0.799038  1
  Co  Co3  1  0.895086  0.500000  0.301789  1
  Co  Co4  1  0.300231  0.500000  0.100545  1
  Co  Co5  1  0.699769  0.500000  0.899455  1
  Co  Co6  1  0.301225  0.000000  0.599377  1
  Co  Co7  1  0.104914  0.500000  0.698211  1
  Co  Co8  1  0.500000  0.500000  0.500000  1
  Co  Co9  1  0.698775  0.000000  0.400623  1
  O  O10  1  0.685913  0.000000  0.308094  1
  O  O11  1  0.907973  0.500000  0.393678  1
  O  O12  1  0.322431  0.500000  0.192217  1
  O  O13  1  0.106015  0.000000  0.297256  1
  O  O14  1  0.876012  0.500000  0.209112  1
  O  O15  1  0.510498  0.000000  0.096963  1
  O  O16  1  0.089362  0.000000  0.104175  1
  O  O17  1  0.277247  0.500000  0.008716  1
  O  O18  1  0.489502  0.000000  0.903037  1
  O  O19  1  0.722753  0.500000  0.991284  1
  O  O20  1  0.910638  0.000000  0.895825  1
  O  O21  1  0.677569  0.500000  0.807783  1
  O  O22  1  0.314087  0.000000  0.691906  1
  O  O23  1  0.123988  0.500000  0.790888  1
  O  O24  1  0.893985  0.000000  0.702744  1
  O  O25  1  0.290722  0.000000  0.506862  1
  O  O26  1  0.510013  0.500000  0.592425  1
  O  O27  1  0.092027  0.500000  0.606322  1
  O  O28  1  0.709278  0.000000  0.493138  1
  O  O29  1  0.489987  0.500000  0.407575  1
