# generated using pymatgen
data_Li2Fe(CO3)2
_symmetry_space_group_name_H-M   'P 1'
_cell_length_a   5.22272798
_cell_length_b   7.71090155
_cell_length_c   6.98057419
_cell_angle_alpha   90.00000000
_cell_angle_beta   114.12311958
_cell_angle_gamma   90.00000000
_symmetry_Int_Tables_number   1
_chemical_formula_structural   Li2Fe(CO3)2
_chemical_formula_sum   'Li4 Fe2 C4 O12'
_cell_volume   256.57076638
_cell_formula_units_Z   2
loop_
 _symmetry_equiv_pos_site_id
 _symmetry_equiv_pos_as_xyz
  1  'x, y, z'
loop_
 _atom_site_type_symbol
 _atom_site_label
 _atom_site_symmetry_multiplicity
 _atom_site_fract_x
 _atom_site_fract_y
 _atom_site_fract_z
 _atom_site_occupancy
  Li  Li0  1  0.594025  0.916545  0.733031  1
  Li  Li1  1  0.405975  0.416545  0.766969  1
  Li  Li2  1  0.594025  0.583455  0.233031  1
  Li  Li3  1  0.405975  0.083455  0.266969  1
  Fe  Fe4  1  0.000000  0.000000  0.500000  1
  Fe  Fe5  1  0.000000  0.500000  0.000000  1
  C  C6  1  0.840030  0.268479  0.642512  1
  C  C7  1  0.159970  0.768479  0.857488  1
  C  C8  1  0.840030  0.231521  0.142512  1
  C  C9  1  0.159970  0.731521  0.357488  1
  O  O10  1  0.685589  0.128144  0.586481  1
  O  O11  1  0.250442  0.903990  0.794177  1
  O  O12  1  0.749558  0.403990  0.705823  1
  O  O13  1  0.314411  0.628144  0.913519  1
  O  O14  1  0.079265  0.266515  0.628750  1
  O  O15  1  0.920735  0.766515  0.871250  1
  O  O16  1  0.079265  0.233485  0.128750  1
  O  O17  1  0.920735  0.733485  0.371250  1
  O  O18  1  0.685589  0.371856  0.086481  1
  O  O19  1  0.250442  0.596010  0.294177  1
  O  O20  1  0.749558  0.096010  0.205823  1
  O  O21  1  0.314411  0.871856  0.413519  1
