# generated using pymatgen
data_Li3VO3F2
_symmetry_space_group_name_H-M   'P 1'
_cell_length_a   3.90375595
_cell_length_b   5.19129529
_cell_length_c   6.04385238
_cell_angle_alpha   113.02620844
_cell_angle_beta   89.47293918
_cell_angle_gamma   112.05083309
_symmetry_Int_Tables_number   1
_chemical_formula_structural   Li3VO3F2
_chemical_formula_sum   'Li3 V1 O3 F2'
_cell_volume   103.10845859
_cell_formula_units_Z   1
loop_
 _symmetry_equiv_pos_site_id
 _symmetry_equiv_pos_as_xyz
  1  'x, y, z'
loop_
 _atom_site_type_symbol
 _atom_site_label
 _atom_site_symmetry_multiplicity
 _atom_site_fract_x
 _atom_site_fract_y
 _atom_site_fract_z
 _atom_site_occupancy
  Li  Li0  1  0.253757  0.832235  0.675874  1
  Li  Li1  1  0.682266  0.462538  0.896826  1
  Li  Li2  1  0.741735  0.126714  0.353574  1
  V  V3  1  0.947951  0.006296  0.978370  1
  O  O4  1  0.127728  0.390253  0.848902  1
  O  O5  1  0.521931  0.995370  0.021125  1
  O  O6  1  0.815597  0.912258  0.720797  1
  F  F7  1  0.177035  0.008011  0.330833  1
  F  F8  1  0.878265  0.552596  0.179953  1
