# generated using pymatgen
data_Ta2WO8
_symmetry_space_group_name_H-M   'P 1'
_cell_length_a   3.88429913
_cell_length_b   18.11844765
_cell_length_c   16.94644345
_cell_angle_alpha   90.00000000
_cell_angle_beta   90.03110432
_cell_angle_gamma   90.00000000
_symmetry_Int_Tables_number   1
_chemical_formula_structural   Ta2WO8
_chemical_formula_sum   'Ta16 W8 O64'
_cell_volume   1192.64764714
_cell_formula_units_Z   8
loop_
 _symmetry_equiv_pos_site_id
 _symmetry_equiv_pos_as_xyz
  1  'x, y, z'
loop_
 _atom_site_type_symbol
 _atom_site_label
 _atom_site_symmetry_multiplicity
 _atom_site_fract_x
 _atom_site_fract_y
 _atom_site_fract_z
 _atom_site_occupancy
  Ta  Ta0  1  0.000859  0.904741  0.250539  1
  Ta  Ta1  1  0.000859  0.095259  0.750539  1
  Ta  Ta2  1  0.999026  0.052358  0.369532  1
  Ta  Ta3  1  0.999026  0.947642  0.869532  1
  Ta  Ta4  1  0.017751  0.222933  0.251768  1
  Ta  Ta5  1  0.017751  0.777067  0.751768  1
  Ta  Ta6  1  0.993552  0.155898  0.558871  1
  Ta  Ta7  1  0.993552  0.844102  0.058871  1
  Ta  Ta8  1  0.993251  0.153323  0.939080  1
  Ta  Ta9  1  0.993251  0.846677  0.439080  1
  Ta  Ta10  1  0.000646  0.549666  0.132181  1
  Ta  Ta11  1  0.000225  0.550586  0.368760  1
  Ta  Ta12  1  0.000646  0.450334  0.632181  1
  Ta  Ta13  1  0.000225  0.449414  0.868760  1
  Ta  Ta14  1  0.991991  0.406320  0.249275  1
  Ta  Ta15  1  0.991991  0.593680  0.749275  1
  W  W16  1  0.030867  0.050172  0.132425  1
  W  W17  1  0.030867  0.949828  0.632425  1
  W  W18  1  0.029978  0.658466  0.559641  1
  W  W19  1  0.029978  0.341534  0.059641  1
  W  W20  1  0.030070  0.343178  0.440099  1
  W  W21  1  0.030070  0.656822  0.940099  1
  W  W22  1  0.953805  0.723035  0.249352  1
  W  W23  1  0.953805  0.276965  0.749352  1
  O  O24  1  0.999354  0.252662  0.004890  1
  O  O25  1  0.999460  0.253722  0.494450  1
  O  O26  1  0.999460  0.746278  0.994450  1
  O  O27  1  0.999354  0.747338  0.504890  1
  O  O28  1  0.998750  0.439221  0.130190  1
  O  O29  1  0.998768  0.438899  0.369036  1
  O  O30  1  0.998750  0.560779  0.630190  1
  O  O31  1  0.998768  0.561101  0.869036  1
  O  O32  1  0.001118  0.312172  0.172493  1
  O  O33  1  0.001118  0.687828  0.672493  1
  O  O34  1  0.001387  0.311767  0.325840  1
  O  O35  1  0.001387  0.688233  0.825840  1
  O  O36  1  0.998808  0.019322  0.247664  1
  O  O37  1  0.998808  0.980678  0.747664  1
  O  O38  1  0.999737  0.588616  0.022085  1
  O  O39  1  0.998937  0.588743  0.477774  1
  O  O40  1  0.999737  0.411384  0.522085  1
  O  O41  1  0.998937  0.411257  0.977774  1
  O  O42  1  0.992654  0.654410  0.168468  1
  O  O43  1  0.992964  0.653801  0.330368  1
  O  O44  1  0.992654  0.345590  0.668468  1
  O  O45  1  0.992964  0.346199  0.830368  1
  O  O46  1  0.481595  0.273142  0.749752  1
  O  O47  1  0.481595  0.726858  0.249752  1
  O  O48  1  0.507755  0.342408  0.063584  1
  O  O49  1  0.507787  0.342723  0.435048  1
  O  O50  1  0.507755  0.657592  0.563584  1
  O  O51  1  0.507787  0.657277  0.935048  1
  O  O52  1  0.506432  0.954505  0.630893  1
  O  O53  1  0.499659  0.955944  0.868797  1
  O  O54  1  0.506432  0.045495  0.130893  1
  O  O55  1  0.499659  0.044056  0.368797  1
  O  O56  1  0.497371  0.097496  0.749764  1
  O  O57  1  0.497371  0.902504  0.249764  1
  O  O58  1  0.497294  0.596521  0.749810  1
  O  O59  1  0.497294  0.403479  0.249810  1
  O  O60  1  0.497623  0.549420  0.372630  1
  O  O61  1  0.497819  0.550070  0.126828  1
  O  O62  1  0.497819  0.449930  0.626828  1
  O  O63  1  0.497623  0.450580  0.872630  1
  O  O64  1  0.495851  0.167264  0.561616  1
  O  O65  1  0.495851  0.832736  0.061616  1
  O  O66  1  0.494920  0.163514  0.943723  1
  O  O67  1  0.494920  0.836486  0.443723  1
  O  O68  1  0.507242  0.226949  0.244971  1
  O  O69  1  0.507242  0.773051  0.744971  1
  O  O70  1  0.004439  0.147138  0.168095  1
  O  O71  1  0.007581  0.152695  0.333870  1
  O  O72  1  0.004439  0.852862  0.668095  1
  O  O73  1  0.007581  0.847305  0.833870  1
  O  O74  1  0.993120  0.080287  0.025620  1
  O  O75  1  0.996801  0.084054  0.478116  1
  O  O76  1  0.993120  0.919713  0.525620  1
  O  O77  1  0.996801  0.915946  0.978116  1
  O  O78  1  0.997613  0.521597  0.249739  1
  O  O79  1  0.997613  0.478403  0.749739  1
  O  O80  1  0.995545  0.810606  0.177226  1
  O  O81  1  0.995545  0.189394  0.677226  1
  O  O82  1  0.994804  0.191471  0.825739  1
  O  O83  1  0.994804  0.808529  0.325739  1
  O  O84  1  0.996541  0.061044  0.630270  1
  O  O85  1  0.996541  0.938956  0.130270  1
  O  O86  1  0.998251  0.063355  0.869129  1
  O  O87  1  0.998251  0.936645  0.369129  1
