# generated using pymatgen
data_Li3CrSiO5
_symmetry_space_group_name_H-M   'P 1'
_cell_length_a   5.00179956
_cell_length_b   5.77418924
_cell_length_c   6.45947330
_cell_angle_alpha   104.46726315
_cell_angle_beta   97.79486381
_cell_angle_gamma   106.47007520
_symmetry_Int_Tables_number   1
_chemical_formula_structural   Li3CrSiO5
_chemical_formula_sum   'Li6 Cr2 Si2 O10'
_cell_volume   168.89431710
_cell_formula_units_Z   2
loop_
 _symmetry_equiv_pos_site_id
 _symmetry_equiv_pos_as_xyz
  1  'x, y, z'
loop_
 _atom_site_type_symbol
 _atom_site_label
 _atom_site_symmetry_multiplicity
 _atom_site_fract_x
 _atom_site_fract_y
 _atom_site_fract_z
 _atom_site_occupancy
  Li  Li0  1  0.699844  0.402469  0.397876  1
  Li  Li1  1  0.500000  0.000000  0.000000  1
  Li  Li2  1  0.500000  0.500000  0.000000  1
  Li  Li3  1  0.300156  0.597531  0.602124  1
  Li  Li4  1  0.108289  0.201020  0.187609  1
  Li  Li5  1  0.891711  0.798980  0.812391  1
  Cr  Cr6  1  0.697645  0.893487  0.394612  1
  Cr  Cr7  1  0.302355  0.106513  0.605388  1
  Si  Si8  1  0.095866  0.691556  0.192212  1
  Si  Si9  1  0.904134  0.308444  0.807788  1
  O  O10  1  0.834669  0.836109  0.120862  1
  O  O11  1  0.629181  0.426003  0.705605  1
  O  O12  1  0.836664  0.372351  0.083465  1
  O  O13  1  0.622541  0.987928  0.707630  1
  O  O14  1  0.377459  0.012072  0.292370  1
  O  O15  1  0.370819  0.573997  0.294395  1
  O  O16  1  0.165331  0.163891  0.879138  1
  O  O17  1  0.163336  0.627649  0.916535  1
  O  O18  1  0.992657  0.249378  0.534368  1
  O  O19  1  0.007343  0.750622  0.465632  1
