# generated using pymatgen
data_LiCoSbO4
_symmetry_space_group_name_H-M   'P 1'
_cell_length_a   6.19354414
_cell_length_b   6.19354414
_cell_length_c   6.19354414
_cell_angle_alpha   121.70632313
_cell_angle_beta   120.03079408
_cell_angle_gamma   88.50836949
_symmetry_Int_Tables_number   1
_chemical_formula_structural   LiCoSbO4
_chemical_formula_sum   'Li2 Co2 Sb2 O8'
_cell_volume   165.68524781
_cell_formula_units_Z   2
loop_
 _symmetry_equiv_pos_site_id
 _symmetry_equiv_pos_as_xyz
  1  'x, y, z'
loop_
 _atom_site_type_symbol
 _atom_site_label
 _atom_site_symmetry_multiplicity
 _atom_site_fract_x
 _atom_site_fract_y
 _atom_site_fract_z
 _atom_site_occupancy
  Li  Li0  1  0.894876  0.644876  0.750000  1
  Li  Li1  1  0.105124  0.355124  0.250000  1
  Co  Co2  1  0.500000  0.000000  0.500000  1
  Co  Co3  1  0.500000  0.500000  0.000000  1
  Sb  Sb4  1  0.000000  0.000000  0.500000  1
  Sb  Sb5  1  0.500000  0.000000  0.000000  1
  O  O6  1  0.750558  0.226984  0.476426  1
  O  O7  1  0.755624  0.776483  0.479141  1
  O  O8  1  0.297342  0.776483  0.020859  1
  O  O9  1  0.750558  0.774132  0.023574  1
  O  O10  1  0.249442  0.225868  0.976426  1
  O  O11  1  0.244376  0.223517  0.520859  1
  O  O12  1  0.702658  0.223517  0.979141  1
  O  O13  1  0.249442  0.773016  0.523574  1
