# generated using pymatgen
data_Li2VO2F
_symmetry_space_group_name_H-M   'P 1'
_cell_length_a   6.01711307
_cell_length_b   6.01711307
_cell_length_c   8.99466218
_cell_angle_alpha   60.03298567
_cell_angle_beta   119.96701433
_cell_angle_gamma   119.94785649
_symmetry_Int_Tables_number   1
_chemical_formula_structural   Li2VO2F
_chemical_formula_sum   'Li8 V4 O8 F4'
_cell_volume   230.48017624
_cell_formula_units_Z   4
loop_
 _symmetry_equiv_pos_site_id
 _symmetry_equiv_pos_as_xyz
  1  'x, y, z'
loop_
 _atom_site_type_symbol
 _atom_site_label
 _atom_site_symmetry_multiplicity
 _atom_site_fract_x
 _atom_site_fract_y
 _atom_site_fract_z
 _atom_site_occupancy
  Li  Li0  1  0.581536  0.871003  0.861964  1
  Li  Li1  1  0.089275  0.910725  0.845015  1
  Li  Li2  1  0.128997  0.418464  0.861964  1
  Li  Li3  1  0.582512  0.417488  0.862802  1
  Li  Li4  1  0.415903  0.584097  0.143505  1
  Li  Li5  1  0.881023  0.582591  0.142543  1
  Li  Li6  1  0.906966  0.093034  0.148528  1
  Li  Li7  1  0.417409  0.118977  0.142543  1
  V  V8  1  0.750099  0.760241  0.493405  1
  V  V9  1  0.251984  0.748016  0.503483  1
  V  V10  1  0.239759  0.249901  0.493405  1
  V  V11  1  0.749547  0.250453  0.491569  1
  O  O12  1  0.153057  0.846943  0.647180  1
  O  O13  1  0.665114  0.848616  0.646694  1
  O  O14  1  0.842019  0.655789  0.355053  1
  O  O15  1  0.346864  0.653136  0.355812  1
  O  O16  1  0.500576  0.499424  0.002690  1
  O  O17  1  0.344211  0.157981  0.355053  1
  O  O18  1  0.151384  0.334886  0.646694  1
  O  O19  1  0.839679  0.160321  0.342432  1
  F  F20  1  0.499618  0.001621  0.997089  1
  F  F21  1  0.998638  0.001362  0.998983  1
  F  F22  1  0.998379  0.500382  0.997089  1
  F  F23  1  0.665677  0.334323  0.664243  1
