# generated using pymatgen
data_Mn3O5F
_symmetry_space_group_name_H-M   'P 1'
_cell_length_a   5.45303494
_cell_length_b   5.45303494
_cell_length_c   7.23802347
_cell_angle_alpha   71.40331016
_cell_angle_beta   108.59668984
_cell_angle_gamma   109.26951037
_symmetry_Int_Tables_number   1
_chemical_formula_structural   Mn3O5F
_chemical_formula_sum   'Mn6 O10 F2'
_cell_volume   186.98948656
_cell_formula_units_Z   2
loop_
 _symmetry_equiv_pos_site_id
 _symmetry_equiv_pos_as_xyz
  1  'x, y, z'
loop_
 _atom_site_type_symbol
 _atom_site_label
 _atom_site_symmetry_multiplicity
 _atom_site_fract_x
 _atom_site_fract_y
 _atom_site_fract_z
 _atom_site_occupancy
  Mn  Mn0  1  0.672108  0.327892  0.154724  1
  Mn  Mn1  1  0.000000  0.000000  0.000000  1
  Mn  Mn2  1  0.679492  0.320508  0.675736  1
  Mn  Mn3  1  0.000000  0.000000  0.500000  1
  Mn  Mn4  1  0.327892  0.672108  0.845276  1
  Mn  Mn5  1  0.320508  0.679492  0.324264  1
  O  O6  1  0.306315  0.306315  0.000000  1
  O  O7  1  0.973583  0.635544  0.667153  1
  O  O8  1  0.772705  0.227295  0.963577  1
  O  O9  1  0.097649  0.902351  0.293052  1
  O  O10  1  0.227295  0.772705  0.036423  1
  O  O11  1  0.902351  0.097649  0.706948  1
  O  O12  1  0.364456  0.026417  0.667153  1
  O  O13  1  0.693685  0.693685  0.000000  1
  O  O14  1  0.026417  0.364456  0.332847  1
  O  O15  1  0.635544  0.973583  0.332847  1
  F  F16  1  0.437200  0.562800  0.630788  1
  F  F17  1  0.562800  0.437200  0.369212  1
