# generated using pymatgen
data_Na2LiMnPCO7
_symmetry_space_group_name_H-M   'P 1'
_cell_length_a   6.84940530
_cell_length_b   8.84796740
_cell_length_c   10.23115891
_cell_angle_alpha   90.73285254
_cell_angle_beta   90.14373795
_cell_angle_gamma   90.33708766
_symmetry_Int_Tables_number   1
_chemical_formula_structural   Na2LiMnPCO7
_chemical_formula_sum   'Na8 Li4 Mn4 P4 C4 O28'
_cell_volume   619.97862480
_cell_formula_units_Z   4
loop_
 _symmetry_equiv_pos_site_id
 _symmetry_equiv_pos_as_xyz
  1  'x, y, z'
loop_
 _atom_site_type_symbol
 _atom_site_label
 _atom_site_symmetry_multiplicity
 _atom_site_fract_x
 _atom_site_fract_y
 _atom_site_fract_z
 _atom_site_occupancy
  Na  Na0  1  0.246501  0.917058  0.879039  1
  Na  Na1  1  0.999686  0.743130  0.622914  1
  Na  Na2  1  0.500033  0.742605  0.622610  1
  Na  Na3  1  0.999744  0.742877  0.126281  1
  Na  Na4  1  0.500409  0.742847  0.125769  1
  Na  Na5  1  0.501682  0.255724  0.874814  1
  Na  Na6  1  0.499722  0.257053  0.376714  1
  Na  Na7  1  0.000834  0.256215  0.376081  1
  Li  Li8  1  0.249818  0.915580  0.377047  1
  Li  Li9  1  0.980371  0.270817  0.883114  1
  Li  Li10  1  0.756485  0.088662  0.625070  1
  Li  Li11  1  0.753439  0.090384  0.124421  1
  Mn  Mn12  1  0.748789  0.638233  0.886521  1
  Mn  Mn13  1  0.750491  0.638961  0.388090  1
  Mn  Mn14  1  0.248067  0.356786  0.613364  1
  Mn  Mn15  1  0.246919  0.357452  0.109944  1
  P  P16  1  0.244374  0.585791  0.851708  1
  P  P17  1  0.250286  0.595308  0.352458  1
  P  P18  1  0.753858  0.401776  0.648446  1
  P  P19  1  0.749237  0.404581  0.145135  1
  C  C20  1  0.758357  0.953708  0.868147  1
  C  C21  1  0.750221  0.947881  0.366051  1
  C  C22  1  0.249189  0.052446  0.628760  1
  C  C23  1  0.249358  0.058104  0.138139  1
  O  O24  1  0.251245  0.909467  0.649220  1
  O  O25  1  0.251218  0.914025  0.155868  1
  O  O26  1  0.750712  0.909563  0.989191  1
  O  O27  1  0.751211  0.905988  0.488065  1
  O  O28  1  0.748345  0.853207  0.773213  1
  O  O29  1  0.751035  0.845940  0.272507  1
  O  O30  1  0.065500  0.682570  0.893252  1
  O  O31  1  0.431162  0.673332  0.896489  1
  O  O32  1  0.069532  0.691731  0.391751  1
  O  O33  1  0.432508  0.692131  0.391495  1
  O  O34  1  0.248029  0.570488  0.699622  1
  O  O35  1  0.749663  0.562455  0.587725  1
  O  O36  1  0.249124  0.570101  0.200791  1
  O  O37  1  0.749840  0.564356  0.083961  1
  O  O38  1  0.232519  0.423167  0.908309  1
  O  O39  1  0.766057  0.422337  0.800815  1
  O  O40  1  0.250866  0.437368  0.416542  1
  O  O41  1  0.754226  0.427554  0.296842  1
  O  O42  1  0.569036  0.307098  0.612259  1
  O  O43  1  0.930745  0.306558  0.602362  1
  O  O44  1  0.566006  0.309317  0.106777  1
  O  O45  1  0.927144  0.307654  0.100451  1
  O  O46  1  0.247093  0.147499  0.727845  1
  O  O47  1  0.246893  0.149452  0.238836  1
  O  O48  1  0.249288  0.103383  0.509597  1
  O  O49  1  0.249644  0.115378  0.021239  1
  O  O50  1  0.774841  0.095249  0.839356  1
  O  O51  1  0.748646  0.088653  0.334985  1
