# generated using pymatgen
data_Li2VCr2O6
_symmetry_space_group_name_H-M   'P 1'
_cell_length_a   5.17947401
_cell_length_b   5.17947401
_cell_length_c   10.17398474
_cell_angle_alpha   90.00000000
_cell_angle_beta   90.00000000
_cell_angle_gamma   120.98398965
_symmetry_Int_Tables_number   1
_chemical_formula_structural   Li2VCr2O6
_chemical_formula_sum   'Li4 V2 Cr4 O12'
_cell_volume   233.99193472
_cell_formula_units_Z   2
loop_
 _symmetry_equiv_pos_site_id
 _symmetry_equiv_pos_as_xyz
  1  'x, y, z'
loop_
 _atom_site_type_symbol
 _atom_site_label
 _atom_site_symmetry_multiplicity
 _atom_site_fract_x
 _atom_site_fract_y
 _atom_site_fract_z
 _atom_site_occupancy
  Li  Li0  1  0.349536  0.849536  0.750000  1
  Li  Li1  1  0.150464  0.650464  0.250000  1
  Li  Li2  1  0.849536  0.349536  0.750000  1
  Li  Li3  1  0.650464  0.150464  0.250000  1
  V  V4  1  0.000000  0.000000  0.000000  1
  V  V5  1  0.500000  0.500000  0.500000  1
  Cr  Cr6  1  0.164959  0.835041  0.500000  1
  Cr  Cr7  1  0.335041  0.664959  0.000000  1
  Cr  Cr8  1  0.664959  0.335041  0.000000  1
  Cr  Cr9  1  0.835041  0.164959  0.500000  1
  O  O10  1  0.331542  0.990351  0.105790  1
  O  O11  1  0.668458  0.009649  0.894210  1
  O  O12  1  0.490351  0.831542  0.394210  1
  O  O13  1  0.168458  0.509649  0.605790  1
  O  O14  1  0.814341  0.814341  0.596333  1
  O  O15  1  0.685659  0.685659  0.096333  1
  O  O16  1  0.314341  0.314341  0.903667  1
  O  O17  1  0.009649  0.668458  0.894210  1
  O  O18  1  0.185659  0.185659  0.403667  1
  O  O19  1  0.831542  0.490351  0.394210  1
  O  O20  1  0.509649  0.168458  0.605790  1
  O  O21  1  0.990351  0.331542  0.105790  1
