# generated using pymatgen
data_LiMn3(BO3)3
_symmetry_space_group_name_H-M   'P 1'
_cell_length_a   6.18527364
_cell_length_b   7.72057683
_cell_length_c   9.05710003
_cell_angle_alpha   111.13770696
_cell_angle_beta   107.64848929
_cell_angle_gamma   97.56620681
_symmetry_Int_Tables_number   1
_chemical_formula_structural   LiMn3(BO3)3
_chemical_formula_sum   'Li2 Mn6 B6 O18'
_cell_volume   370.02264463
_cell_formula_units_Z   2
loop_
 _symmetry_equiv_pos_site_id
 _symmetry_equiv_pos_as_xyz
  1  'x, y, z'
loop_
 _atom_site_type_symbol
 _atom_site_label
 _atom_site_symmetry_multiplicity
 _atom_site_fract_x
 _atom_site_fract_y
 _atom_site_fract_z
 _atom_site_occupancy
  Li  Li0  1  0.334842  0.004104  0.389332  1
  Li  Li1  1  0.663757  0.334254  0.058243  1
  Mn  Mn2  1  0.349827  0.605422  0.598801  1
  Mn  Mn3  1  0.300468  0.034462  0.727353  1
  Mn  Mn4  1  0.037379  0.281343  0.936734  1
  Mn  Mn5  1  0.968430  0.704773  0.040868  1
  Mn  Mn6  1  0.715832  0.961675  0.270299  1
  Mn  Mn7  1  0.647314  0.400381  0.408298  1
  B  B8  1  0.707904  0.961336  0.940125  1
  B  B9  1  0.597368  0.360795  0.722109  1
  B  B10  1  0.961650  0.692954  0.377088  1
  B  B11  1  0.051261  0.301358  0.617452  1
  B  B12  1  0.377112  0.642335  0.277328  1
  B  B13  1  0.297859  0.041815  0.064214  1
  O  O14  1  0.533167  0.893826  0.776494  1
  O  O15  1  0.386239  0.520645  0.365058  1
  O  O16  1  0.842047  0.145558  0.027407  1
  O  O17  1  0.333711  0.155584  0.976532  1
  O  O18  1  0.745967  0.428238  0.891866  1
  O  O19  1  0.117300  0.745603  0.544319  1
  O  O20  1  0.456594  0.176625  0.627815  1
  O  O21  1  0.790358  0.520710  0.289956  1
  O  O22  1  0.993601  0.819620  0.303877  1
  O  O23  1  0.049293  0.165954  0.687765  1
  O  O24  1  0.213845  0.475324  0.707033  1
  O  O25  1  0.519151  0.821751  0.357966  1
  O  O26  1  0.873854  0.252253  0.459832  1
  O  O27  1  0.202334  0.567877  0.112901  1
  O  O28  1  0.718901  0.832632  0.017001  1
  O  O29  1  0.141284  0.864954  0.972964  1
  O  O30  1  0.610553  0.482577  0.637650  1
  O  O31  1  0.434289  0.113780  0.236797  1
