# generated using pymatgen
data_LiNbCrO4
_symmetry_space_group_name_H-M   'P 1'
_cell_length_a   6.11167622
_cell_length_b   6.11167622
_cell_length_c   6.11167622
_cell_angle_alpha   121.81361584
_cell_angle_beta   119.21771393
_cell_angle_gamma   89.12407016
_symmetry_Int_Tables_number   1
_chemical_formula_structural   LiNbCrO4
_chemical_formula_sum   'Li2 Nb2 Cr2 O8'
_cell_volume   160.04004473
_cell_formula_units_Z   2
loop_
 _symmetry_equiv_pos_site_id
 _symmetry_equiv_pos_as_xyz
  1  'x, y, z'
loop_
 _atom_site_type_symbol
 _atom_site_label
 _atom_site_symmetry_multiplicity
 _atom_site_fract_x
 _atom_site_fract_y
 _atom_site_fract_z
 _atom_site_occupancy
  Li  Li0  1  0.878873  0.628873  0.750000  1
  Li  Li1  1  0.121127  0.371127  0.250000  1
  Nb  Nb2  1  0.500000  0.000000  0.500000  1
  Nb  Nb3  1  0.500000  0.500000  0.000000  1
  Cr  Cr4  1  0.000000  0.000000  0.500000  1
  Cr  Cr5  1  0.500000  0.000000  0.000000  1
  O  O6  1  0.732997  0.209264  0.476267  1
  O  O7  1  0.757445  0.767349  0.490096  1
  O  O8  1  0.277253  0.767349  0.009904  1
  O  O9  1  0.732997  0.756730  0.023733  1
  O  O10  1  0.267003  0.243270  0.976267  1
  O  O11  1  0.242555  0.232651  0.509904  1
  O  O12  1  0.722747  0.232651  0.990096  1
  O  O13  1  0.267003  0.790736  0.523733  1
