# generated using pymatgen
data_Li4Ni3Sn2Sb3O16
_symmetry_space_group_name_H-M   'P 1'
_cell_length_a   6.15471269
_cell_length_b   6.15471269
_cell_length_c   9.90563243
_cell_angle_alpha   89.77260458
_cell_angle_beta   90.22739542
_cell_angle_gamma   119.60235028
_symmetry_Int_Tables_number   1
_chemical_formula_structural   Li4Ni3Sn2Sb3O16
_chemical_formula_sum   'Li4 Ni3 Sn2 Sb3 O16'
_cell_volume   326.24970793
_cell_formula_units_Z   1
loop_
 _symmetry_equiv_pos_site_id
 _symmetry_equiv_pos_as_xyz
  1  'x, y, z'
loop_
 _atom_site_type_symbol
 _atom_site_label
 _atom_site_symmetry_multiplicity
 _atom_site_fract_x
 _atom_site_fract_y
 _atom_site_fract_z
 _atom_site_occupancy
  Li  Li0  1  0.337077  0.662923  0.117277  1
  Li  Li1  1  0.013933  0.986067  0.016687  1
  Li  Li2  1  0.009209  0.990791  0.497221  1
  Li  Li3  1  0.674043  0.325957  0.591206  1
  Ni  Ni4  1  0.169079  0.830921  0.784599  1
  Ni  Ni5  1  0.338383  0.172702  0.287340  1
  Ni  Ni6  1  0.827298  0.661617  0.287340  1
  Sn  Sn7  1  0.322283  0.677717  0.496177  1
  Sn  Sn8  1  0.653362  0.346638  0.023577  1
  Sb  Sb9  1  0.167840  0.338349  0.784076  1
  Sb  Sb10  1  0.661651  0.832160  0.784076  1
  Sb  Sb11  1  0.828641  0.171359  0.285726  1
  O  O12  1  0.150778  0.324608  0.405631  1
  O  O13  1  0.485539  0.514461  0.661199  1
  O  O14  1  0.336747  0.663253  0.894828  1
  O  O15  1  0.998531  0.001469  0.684389  1
  O  O16  1  0.993224  0.006776  0.196626  1
  O  O17  1  0.675392  0.849222  0.405631  1
  O  O18  1  0.039341  0.512318  0.659887  1
  O  O19  1  0.487682  0.960659  0.659887  1
  O  O20  1  0.836673  0.163327  0.897416  1
  O  O21  1  0.158823  0.841177  0.400878  1
  O  O22  1  0.526855  0.032484  0.157727  1
  O  O23  1  0.967516  0.473145  0.157727  1
  O  O24  1  0.673409  0.326591  0.393813  1
  O  O25  1  0.319109  0.167088  0.899802  1
  O  O26  1  0.514088  0.485912  0.161602  1
  O  O27  1  0.832912  0.680891  0.899802  1
