# generated using pymatgen
data_Li4V8O13F3
_symmetry_space_group_name_H-M   'P 1'
_cell_length_a   6.00080227
_cell_length_b   6.00098862
_cell_length_c   10.51876319
_cell_angle_alpha   90.65053216
_cell_angle_beta   106.10772582
_cell_angle_gamma   118.30111793
_symmetry_Int_Tables_number   1
_chemical_formula_structural   Li4V8O13F3
_chemical_formula_sum   'Li4 V8 O13 F3'
_cell_volume   315.81354642
_cell_formula_units_Z   1
loop_
 _symmetry_equiv_pos_site_id
 _symmetry_equiv_pos_as_xyz
  1  'x, y, z'
loop_
 _atom_site_type_symbol
 _atom_site_label
 _atom_site_symmetry_multiplicity
 _atom_site_fract_x
 _atom_site_fract_y
 _atom_site_fract_z
 _atom_site_occupancy
  Li  Li0  1  0.122974  0.328561  0.942109  1
  Li  Li1  1  0.883890  0.161800  0.557388  1
  Li  Li2  1  0.109839  0.833064  0.445850  1
  Li  Li3  1  0.889776  0.669011  0.057321  1
  V  V4  1  0.481698  0.241229  0.761090  1
  V  V5  1  0.505455  0.494688  0.501068  1
  V  V6  1  0.001094  0.752092  0.755501  1
  V  V7  1  0.488717  0.007817  0.995872  1
  V  V8  1  0.498241  0.249318  0.249411  1
  V  V9  1  0.498978  0.748245  0.750356  1
  V  V10  1  0.997493  0.248963  0.249511  1
  V  V11  1  0.498090  0.749774  0.249216  1
  O  O12  1  0.249400  0.116905  0.866151  1
  O  O13  1  0.707249  0.123688  0.862626  1
  O  O14  1  0.730482  0.606001  0.854825  1
  O  O15  1  0.261275  0.162391  0.370481  1
  O  O16  1  0.269712  0.666948  0.871698  1
  O  O17  1  0.705153  0.609359  0.371182  1
  O  O18  1  0.262203  0.887275  0.649531  1
  O  O19  1  0.738049  0.109485  0.352951  1
  O  O20  1  0.299774  0.374842  0.634836  1
  O  O21  1  0.736413  0.337950  0.129378  1
  O  O22  1  0.731284  0.827531  0.629631  1
  O  O23  1  0.258614  0.389593  0.147693  1
  O  O24  1  0.292759  0.890859  0.128231  1
  F  F25  1  0.748839  0.372620  0.629296  1
  F  F26  1  0.249184  0.619710  0.375544  1
  F  F27  1  0.748340  0.879748  0.125635  1
