# generated using pymatgen
data_Mn12O5F19
_symmetry_space_group_name_H-M   'P 1'
_cell_length_a   4.87351268
_cell_length_b   5.86319965
_cell_length_c   15.90478177
_cell_angle_alpha   89.25831470
_cell_angle_beta   89.50599902
_cell_angle_gamma   89.36853051
_symmetry_Int_Tables_number   1
_chemical_formula_structural   Mn12O5F19
_chemical_formula_sum   'Mn12 O5 F19'
_cell_volume   454.38722730
_cell_formula_units_Z   1
loop_
 _symmetry_equiv_pos_site_id
 _symmetry_equiv_pos_as_xyz
  1  'x, y, z'
loop_
 _atom_site_type_symbol
 _atom_site_label
 _atom_site_symmetry_multiplicity
 _atom_site_fract_x
 _atom_site_fract_y
 _atom_site_fract_z
 _atom_site_occupancy
  Mn  Mn0  1  0.016390  0.824871  0.578633  1
  Mn  Mn1  1  0.994394  0.144440  0.753231  1
  Mn  Mn2  1  0.961082  0.830199  0.917185  1
  Mn  Mn3  1  0.042155  0.820798  0.251975  1
  Mn  Mn4  1  0.001277  0.141551  0.411638  1
  Mn  Mn5  1  0.002689  0.161068  0.084577  1
  Mn  Mn6  1  0.469729  0.664083  0.418345  1
  Mn  Mn7  1  0.502756  0.667887  0.082466  1
  Mn  Mn8  1  0.522928  0.682177  0.754266  1
  Mn  Mn9  1  0.505142  0.355916  0.919000  1
  Mn  Mn10  1  0.488900  0.351267  0.581439  1
  Mn  Mn11  1  0.496413  0.356928  0.247244  1
  O  O12  1  0.217360  0.869364  0.360553  1
  O  O13  1  0.282269  0.613781  0.522608  1
  O  O14  1  0.299960  0.619843  0.192267  1
  O  O15  1  0.704189  0.626223  0.973671  1
  O  O16  1  0.784857  0.893063  0.811059  1
  F  F17  1  0.238914  0.892430  0.691301  1
  F  F18  1  0.207460  0.873781  0.022827  1
  F  F19  1  0.226430  0.110315  0.869334  1
  F  F20  1  0.226823  0.114818  0.526511  1
  F  F21  1  0.248167  0.111765  0.191440  1
  F  F22  1  0.260066  0.610526  0.858254  1
  F  F23  1  0.266232  0.383467  0.698388  1
  F  F24  1  0.264591  0.376328  0.355788  1
  F  F25  1  0.270680  0.393255  0.030539  1
  F  F26  1  0.734711  0.389219  0.805319  1
  F  F27  1  0.739136  0.605055  0.640126  1
  F  F28  1  0.724708  0.391689  0.464629  1
  F  F29  1  0.734722  0.394578  0.139602  1
  F  F30  1  0.716364  0.623872  0.314519  1
  F  F31  1  0.758559  0.892671  0.474141  1
  F  F32  1  0.768224  0.107649  0.636377  1
  F  F33  1  0.753735  0.116316  0.979231  1
  F  F34  1  0.793810  0.871832  0.145263  1
  F  F35  1  0.774178  0.116974  0.296252  1
