# generated using pymatgen
data_BaLa4TiCr4O15
_symmetry_space_group_name_H-M   'P 1'
_cell_length_a   5.58076123
_cell_length_b   7.91895704
_cell_length_c   14.80623173
_cell_angle_alpha   105.31937989
_cell_angle_beta   100.59767413
_cell_angle_gamma   90.85967431
_symmetry_Int_Tables_number   1
_chemical_formula_structural   BaLa4TiCr4O15
_chemical_formula_sum   'Ba2 La8 Ti2 Cr8 O30'
_cell_volume   618.93179195
_cell_formula_units_Z   2
loop_
 _symmetry_equiv_pos_site_id
 _symmetry_equiv_pos_as_xyz
  1  'x, y, z'
loop_
 _atom_site_type_symbol
 _atom_site_label
 _atom_site_symmetry_multiplicity
 _atom_site_fract_x
 _atom_site_fract_y
 _atom_site_fract_z
 _atom_site_occupancy
  Ba  Ba0  1  0.501163  0.251302  0.002652  1
  Ba  Ba1  1  0.498837  0.748698  0.997348  1
  La  La2  1  0.901069  0.649005  0.798179  1
  La  La3  1  0.299403  0.050183  0.600158  1
  La  La4  1  0.699991  0.447843  0.397073  1
  La  La5  1  0.899230  0.148928  0.798016  1
  La  La6  1  0.100770  0.851072  0.201984  1
  La  La7  1  0.300009  0.552157  0.602927  1
  La  La8  1  0.700597  0.949817  0.399842  1
  La  La9  1  0.098931  0.350995  0.201821  1
  Ti  Ti10  1  0.000000  0.000000  0.000000  1
  Ti  Ti11  1  0.000000  0.500000  0.000000  1
  Cr  Cr12  1  0.395155  0.399351  0.797306  1
  Cr  Cr13  1  0.799779  0.800234  0.598403  1
  Cr  Cr14  1  0.403238  0.898457  0.797262  1
  Cr  Cr15  1  0.604845  0.600649  0.202694  1
  Cr  Cr16  1  0.798711  0.298352  0.598480  1
  Cr  Cr17  1  0.201289  0.701648  0.401520  1
  Cr  Cr18  1  0.200221  0.199766  0.401597  1
  Cr  Cr19  1  0.596762  0.101543  0.202738  1
  O  O20  1  0.722814  0.423969  0.888205  1
  O  O21  1  0.991965  0.740467  0.981655  1
  O  O22  1  0.164820  0.964444  0.887911  1
  O  O23  1  0.130193  0.814604  0.683157  1
  O  O24  1  0.204548  0.431028  0.904595  1
  O  O25  1  0.387231  0.137317  0.774016  1
  O  O26  1  0.402587  0.654555  0.808322  1
  O  O27  1  0.556401  0.370606  0.684257  1
  O  O28  1  0.700004  0.973227  0.904857  1
  O  O29  1  0.528135  0.205641  0.485804  1
  O  O30  1  0.649044  0.825139  0.713083  1
  O  O31  1  0.785260  0.535607  0.570947  1
  O  O32  1  0.814048  0.064346  0.628601  1
  O  O33  1  0.954316  0.780592  0.484669  1
  O  O34  1  0.067135  0.388002  0.711756  1
  O  O35  1  0.932865  0.611998  0.288244  1
  O  O36  1  0.045684  0.219408  0.515331  1
  O  O37  1  0.185952  0.935654  0.371399  1
  O  O38  1  0.214740  0.464393  0.429053  1
  O  O39  1  0.350956  0.174861  0.286917  1
  O  O40  1  0.471865  0.794359  0.514196  1
  O  O41  1  0.299996  0.026773  0.095143  1
  O  O42  1  0.443599  0.629394  0.315743  1
  O  O43  1  0.597413  0.345445  0.191678  1
  O  O44  1  0.612769  0.862683  0.225984  1
  O  O45  1  0.795452  0.568972  0.095405  1
  O  O46  1  0.869807  0.185396  0.316843  1
  O  O47  1  0.835180  0.035556  0.112089  1
  O  O48  1  0.008035  0.259533  0.018345  1
  O  O49  1  0.277186  0.576031  0.111795  1
