# generated using pymatgen
data_Li4Mn3Fe3(CuO8)2
_symmetry_space_group_name_H-M   'P 1'
_cell_length_a   5.87610767
_cell_length_b   5.87610767
_cell_length_c   9.57540324
_cell_angle_alpha   89.31433973
_cell_angle_beta   90.68566027
_cell_angle_gamma   120.45324785
_symmetry_Int_Tables_number   1
_chemical_formula_structural   Li4Mn3Fe3(CuO8)2
_chemical_formula_sum   'Li4 Mn3 Fe3 Cu2 O16'
_cell_volume   284.98645604
_cell_formula_units_Z   1
loop_
 _symmetry_equiv_pos_site_id
 _symmetry_equiv_pos_as_xyz
  1  'x, y, z'
loop_
 _atom_site_type_symbol
 _atom_site_label
 _atom_site_symmetry_multiplicity
 _atom_site_fract_x
 _atom_site_fract_y
 _atom_site_fract_z
 _atom_site_occupancy
  Li  Li0  1  0.669400  0.330600  0.104303  1
  Li  Li1  1  0.997982  0.002018  0.003391  1
  Li  Li2  1  0.000211  0.999789  0.504603  1
  Li  Li3  1  0.335037  0.664963  0.603821  1
  Mn  Mn4  1  0.828827  0.171173  0.786085  1
  Mn  Mn5  1  0.660365  0.831076  0.286037  1
  Mn  Mn6  1  0.168924  0.339635  0.286037  1
  Fe  Fe7  1  0.830200  0.663431  0.787447  1
  Fe  Fe8  1  0.336569  0.169800  0.787447  1
  Fe  Fe9  1  0.167909  0.832091  0.287151  1
  Cu  Cu10  1  0.663195  0.336805  0.512065  1
  Cu  Cu11  1  0.330494  0.669506  0.011881  1
  O  O12  1  0.833672  0.676042  0.396621  1
  O  O13  1  0.520659  0.479341  0.659914  1
  O  O14  1  0.672314  0.327686  0.896524  1
  O  O15  1  0.993018  0.006982  0.690414  1
  O  O16  1  0.993348  0.006652  0.189491  1
  O  O17  1  0.323958  0.166328  0.396621  1
  O  O18  1  0.961750  0.474135  0.662484  1
  O  O19  1  0.525865  0.038250  0.662484  1
  O  O20  1  0.163424  0.836576  0.898578  1
  O  O21  1  0.841843  0.158157  0.394657  1
  O  O22  1  0.488320  0.960931  0.164120  1
  O  O23  1  0.039069  0.511680  0.164120  1
  O  O24  1  0.340441  0.659559  0.393501  1
  O  O25  1  0.673150  0.841841  0.896897  1
  O  O26  1  0.481544  0.518456  0.168484  1
  O  O27  1  0.158159  0.326850  0.896897  1
