# generated using pymatgen
data_La3Ti2N3O4
_symmetry_space_group_name_H-M   'P 1'
_cell_length_a   10.75219625
_cell_length_b   10.75219625
_cell_length_c   10.75219625
_cell_angle_alpha   158.80460623
_cell_angle_beta   158.80460623
_cell_angle_gamma   30.15087829
_symmetry_Int_Tables_number   1
_chemical_formula_structural   La3Ti2N3O4
_chemical_formula_sum   'La3 Ti2 N3 O4'
_cell_volume   162.39066904
_cell_formula_units_Z   1
loop_
 _symmetry_equiv_pos_site_id
 _symmetry_equiv_pos_as_xyz
  1  'x, y, z'
loop_
 _atom_site_type_symbol
 _atom_site_label
 _atom_site_symmetry_multiplicity
 _atom_site_fract_x
 _atom_site_fract_y
 _atom_site_fract_z
 _atom_site_occupancy
  La  La0  1  0.000000  1.000000  0.000000  1
  La  La1  1  0.817928  0.817928  0.000000  1
  La  La2  1  0.182072  0.182072  0.000000  1
  Ti  Ti3  1  0.593198  0.593198  0.000000  1
  Ti  Ti4  1  0.406802  0.406802  0.000000  1
  N  N5  1  0.500000  0.500000  0.000000  1
  N  N6  1  0.400042  0.900042  0.500000  1
  N  N7  1  0.099958  0.599958  0.500000  1
  O  O8  1  0.705089  0.705089  0.000000  1
  O  O9  1  0.294911  0.294911  0.000000  1
  O  O10  1  0.895200  0.395200  0.500000  1
  O  O11  1  0.604800  0.104800  0.500000  1
