# generated using pymatgen
data_Li24Ti5Cr7O36
_symmetry_space_group_name_H-M   'P 1'
_cell_length_a   5.05296717
_cell_length_b   9.78743440
_cell_length_c   13.40966447
_cell_angle_alpha   97.29308317
_cell_angle_beta   100.77317416
_cell_angle_gamma   94.65953842
_symmetry_Int_Tables_number   1
_chemical_formula_structural   Li24Ti5Cr7O36
_chemical_formula_sum   'Li24 Ti5 Cr7 O36'
_cell_volume   642.46332275
_cell_formula_units_Z   1
loop_
 _symmetry_equiv_pos_site_id
 _symmetry_equiv_pos_as_xyz
  1  'x, y, z'
loop_
 _atom_site_type_symbol
 _atom_site_label
 _atom_site_symmetry_multiplicity
 _atom_site_fract_x
 _atom_site_fract_y
 _atom_site_fract_z
 _atom_site_occupancy
  Li  Li0  1  0.173475  0.998546  0.832769  1
  Li  Li1  1  0.050218  0.999549  0.613508  1
  Li  Li2  1  0.000222  0.749668  0.249306  1
  Li  Li3  1  0.333272  0.749453  0.916774  1
  Li  Li4  1  0.049219  0.500308  0.113131  1
  Li  Li5  1  0.374459  0.498628  0.777618  1
  Li  Li6  1  0.164487  0.499247  0.334484  1
  Li  Li7  1  0.504795  0.499424  0.999026  1
  Li  Li8  1  0.291139  0.500831  0.555529  1
  Li  Li9  1  0.333910  0.250387  0.418078  1
  Li  Li10  1  0.500546  0.999552  0.500331  1
  Li  Li11  1  0.282556  0.997967  0.052163  1
  Li  Li12  1  0.615085  0.999595  0.719845  1
  Li  Li13  1  0.387348  0.000124  0.281199  1
  Li  Li14  1  0.714014  0.001788  0.946760  1
  Li  Li15  1  0.666371  0.750416  0.582850  1
  Li  Li16  1  0.709365  0.499780  0.444428  1
  Li  Li17  1  0.835126  0.501955  0.666072  1
  Li  Li18  1  0.619424  0.500707  0.221634  1
  Li  Li19  1  0.951842  0.501025  0.887871  1
  Li  Li20  1  0.664123  0.249631  0.082930  1
  Li  Li21  1  0.828621  0.001605  0.167192  1
  Li  Li22  1  0.999509  0.249706  0.749676  1
  Li  Li23  1  0.949598  0.999809  0.385811  1
  Ti  Ti24  1  0.108296  0.248274  0.971881  1
  Ti  Ti25  1  0.111432  0.752469  0.472829  1
  Ti  Ti26  1  0.221688  0.246848  0.193747  1
  Ti  Ti27  1  0.777623  0.749421  0.808455  1
  Ti  Ti28  1  0.898656  0.255913  0.527708  1
  Cr  Cr29  1  0.221001  0.749623  0.693552  1
  Cr  Cr30  1  0.453925  0.250555  0.640309  1
  Cr  Cr31  1  0.549392  0.248581  0.858878  1
  Cr  Cr32  1  0.439457  0.748175  0.134733  1
  Cr  Cr33  1  0.557089  0.750284  0.357845  1
  Cr  Cr34  1  0.772971  0.250169  0.306652  1
  Cr  Cr35  1  0.890481  0.750481  0.031448  1
  O  O36  1  0.000424  0.862661  0.931368  1
  O  O37  1  0.069991  0.633740  0.786153  1
  O  O38  1  0.006576  0.365169  0.430111  1
  O  O39  1  0.147592  0.362161  0.644887  1
  O  O40  1  0.270204  0.365266  0.880489  1
  O  O41  1  0.336451  0.863605  0.596244  1
  O  O42  1  0.067470  0.135749  0.286635  1
  O  O43  1  0.194497  0.137573  0.525475  1
  O  O44  1  0.400733  0.133118  0.952255  1
  O  O45  1  0.132926  0.862005  0.140899  1
  O  O46  1  0.266735  0.864919  0.380534  1
  O  O47  1  0.474628  0.863091  0.810629  1
  O  O48  1  0.332847  0.139011  0.741867  1
  O  O49  1  0.197895  0.636657  0.025664  1
  O  O50  1  0.404007  0.635336  0.450131  1
  O  O51  1  0.517540  0.637982  0.690146  1
  O  O52  1  0.332118  0.638834  0.235215  1
  O  O53  1  0.668259  0.637489  0.907018  1
  O  O54  1  0.331328  0.364095  0.095852  1
  O  O55  1  0.666482  0.361711  0.757769  1
  O  O56  1  0.485040  0.362327  0.311496  1
  O  O57  1  0.599606  0.366755  0.547501  1
  O  O58  1  0.806005  0.362230  0.974496  1
  O  O59  1  0.664043  0.859484  0.261480  1
  O  O60  1  0.519999  0.135258  0.188735  1
  O  O61  1  0.729596  0.134964  0.618809  1
  O  O62  1  0.852268  0.138186  0.854901  1
  O  O63  1  0.590983  0.864454  0.051714  1
  O  O64  1  0.811480  0.864755  0.476634  1
  O  O65  1  0.937291  0.864413  0.715203  1
  O  O66  1  0.666908  0.137680  0.401270  1
  O  O67  1  0.744120  0.635146  0.116103  1
  O  O68  1  0.849184  0.637365  0.355634  1
  O  O69  1  0.999873  0.637560  0.572726  1
  O  O70  1  0.927064  0.363930  0.216205  1
  O  O71  1  0.997103  0.134826  0.070734  1
