# generated using pymatgen
data_NaMnO2
_symmetry_space_group_name_H-M   'P 1'
_cell_length_a   5.41554609
_cell_length_b   5.41554609
_cell_length_c   5.41554609
_cell_angle_alpha   131.30797319
_cell_angle_beta   131.30797319
_cell_angle_gamma   71.32422882
_symmetry_Int_Tables_number   1
_chemical_formula_structural   NaMnO2
_chemical_formula_sum   'Na2 Mn2 O4'
_cell_volume   87.72167343
_cell_formula_units_Z   2
loop_
 _symmetry_equiv_pos_site_id
 _symmetry_equiv_pos_as_xyz
  1  'x, y, z'
loop_
 _atom_site_type_symbol
 _atom_site_label
 _atom_site_symmetry_multiplicity
 _atom_site_fract_x
 _atom_site_fract_y
 _atom_site_fract_z
 _atom_site_occupancy
  Na  Na0  1  0.500000  0.500000  0.000000  1
  Na  Na1  1  0.250000  0.750000  0.500000  1
  Mn  Mn2  1  0.000000  0.000000  0.000000  1
  Mn  Mn3  1  0.750000  0.250000  0.500000  1
  O  O4  1  0.530363  0.030363  0.500000  1
  O  O5  1  0.780363  0.780363  0.000000  1
  O  O6  1  0.969637  0.469637  0.500000  1
  O  O7  1  0.219637  0.219637  0.000000  1
