# generated using pymatgen
data_Fe10O11F9
_symmetry_space_group_name_H-M   'P 1'
_cell_length_a   4.77596138
_cell_length_b   15.30947710
_cell_length_c   4.77614915
_cell_angle_alpha   90.00000000
_cell_angle_beta   95.29698674
_cell_angle_gamma   90.00000000
_symmetry_Int_Tables_number   1
_chemical_formula_structural   Fe10O11F9
_chemical_formula_sum   'Fe10 O11 F9'
_cell_volume   347.72862419
_cell_formula_units_Z   1
loop_
 _symmetry_equiv_pos_site_id
 _symmetry_equiv_pos_as_xyz
  1  'x, y, z'
loop_
 _atom_site_type_symbol
 _atom_site_label
 _atom_site_symmetry_multiplicity
 _atom_site_fract_x
 _atom_site_fract_y
 _atom_site_fract_z
 _atom_site_occupancy
  Fe  Fe0  1  0.014763  0.307231  0.994269  1
  Fe  Fe1  1  0.001447  0.102241  0.000163  1
  Fe  Fe2  1  0.001447  0.897759  0.000163  1
  Fe  Fe3  1  0.014763  0.692769  0.994269  1
  Fe  Fe4  1  0.993210  0.500000  0.954259  1
  Fe  Fe5  1  0.506652  0.199978  0.495203  1
  Fe  Fe6  1  0.506652  0.800022  0.495203  1
  Fe  Fe7  1  0.501351  0.000000  0.501125  1
  Fe  Fe8  1  0.477938  0.605281  0.540679  1
  Fe  Fe9  1  0.477938  0.394719  0.540679  1
  O  O10  1  0.185844  0.599575  0.806617  1
  O  O11  1  0.185844  0.400425  0.806617  1
  O  O12  1  0.700142  0.295204  0.702781  1
  O  O13  1  0.701876  0.099854  0.696893  1
  O  O14  1  0.701876  0.900146  0.696893  1
  O  O15  1  0.700142  0.704796  0.702781  1
  O  O16  1  0.676354  0.500000  0.683715  1
  O  O17  1  0.305170  0.297611  0.306236  1
  O  O18  1  0.304377  0.099974  0.301108  1
  O  O19  1  0.304377  0.900026  0.301108  1
  O  O20  1  0.305170  0.702389  0.306236  1
  F  F21  1  0.197141  0.199785  0.809708  1
  F  F22  1  0.193304  0.000000  0.809568  1
  F  F23  1  0.197141  0.800215  0.809708  1
  F  F24  1  0.291621  0.500000  0.296301  1
  F  F25  1  0.812764  0.200876  0.191650  1
  F  F26  1  0.812764  0.799124  0.191650  1
  F  F27  1  0.810969  0.000000  0.190006  1
  F  F28  1  0.808484  0.402313  0.187207  1
  F  F29  1  0.808484  0.597687  0.187207  1
