# generated using pymatgen
data_LiFe(PO3)3
_symmetry_space_group_name_H-M   'P 1'
_cell_length_a   6.37274574
_cell_length_b   6.37274574
_cell_length_c   6.37274574
_cell_angle_alpha   108.08968315
_cell_angle_beta   108.08968315
_cell_angle_gamma   108.08968315
_symmetry_Int_Tables_number   1
_chemical_formula_structural   LiFe(PO3)3
_chemical_formula_sum   'Li1 Fe1 P3 O9'
_cell_volume   208.80077672
_cell_formula_units_Z   1
loop_
 _symmetry_equiv_pos_site_id
 _symmetry_equiv_pos_as_xyz
  1  'x, y, z'
loop_
 _atom_site_type_symbol
 _atom_site_label
 _atom_site_symmetry_multiplicity
 _atom_site_fract_x
 _atom_site_fract_y
 _atom_site_fract_z
 _atom_site_occupancy
  Li  Li0  1  0.472617  0.472617  0.472617  1
  Fe  Fe1  1  0.006797  0.006797  0.006797  1
  P  P2  1  0.481446  0.901491  0.028912  1
  P  P3  1  0.028912  0.481446  0.901491  1
  P  P4  1  0.901491  0.028912  0.481446  1
  O  O5  1  0.625962  0.860214  0.260651  1
  O  O6  1  0.118600  0.387192  0.084350  1
  O  O7  1  0.936892  0.890660  0.630166  1
  O  O8  1  0.630166  0.936892  0.890660  1
  O  O9  1  0.387192  0.084350  0.118600  1
  O  O10  1  0.260651  0.625962  0.860214  1
  O  O11  1  0.084350  0.118600  0.387192  1
  O  O12  1  0.890660  0.630166  0.936892  1
  O  O13  1  0.860214  0.260651  0.625962  1
