# generated using pymatgen
data_Li2Fe2SnO6
_symmetry_space_group_name_H-M   'P 1'
_cell_length_a   5.17346630
_cell_length_b   5.17346630
_cell_length_c   10.12327098
_cell_angle_alpha   90.00000000
_cell_angle_beta   90.00000000
_cell_angle_gamma   119.66348275
_symmetry_Int_Tables_number   1
_chemical_formula_structural   Li2Fe2SnO6
_chemical_formula_sum   'Li4 Fe4 Sn2 O12'
_cell_volume   235.43848634
_cell_formula_units_Z   2
loop_
 _symmetry_equiv_pos_site_id
 _symmetry_equiv_pos_as_xyz
  1  'x, y, z'
loop_
 _atom_site_type_symbol
 _atom_site_label
 _atom_site_symmetry_multiplicity
 _atom_site_fract_x
 _atom_site_fract_y
 _atom_site_fract_z
 _atom_site_occupancy
  Li  Li0  1  0.660464  0.160464  0.750000  1
  Li  Li1  1  0.839536  0.339536  0.250000  1
  Li  Li2  1  0.160464  0.660464  0.750000  1
  Li  Li3  1  0.339536  0.839536  0.250000  1
  Fe  Fe4  1  0.836443  0.163557  0.500000  1
  Fe  Fe5  1  0.663557  0.336443  1.000000  1
  Fe  Fe6  1  0.336443  0.663557  1.000000  1
  Fe  Fe7  1  0.163557  0.836443  0.500000  1
  Sn  Sn8  1  0.000000  0.000000  0.000000  1
  Sn  Sn9  1  0.500000  0.500000  0.500000  1
  O  O10  1  0.651227  0.009208  0.105065  1
  O  O11  1  0.348773  0.990792  0.894935  1
  O  O12  1  0.509208  0.151227  0.394935  1
  O  O13  1  0.848773  0.490792  0.605065  1
  O  O14  1  0.154538  0.154538  0.599752  1
  O  O15  1  0.345462  0.345462  0.099752  1
  O  O16  1  0.654538  0.654538  0.900248  1
  O  O17  1  0.990792  0.348773  0.894935  1
  O  O18  1  0.845462  0.845462  0.400248  1
  O  O19  1  0.151227  0.509208  0.394935  1
  O  O20  1  0.490792  0.848773  0.605065  1
  O  O21  1  0.009208  0.651227  0.105065  1
