# generated using pymatgen
data_CsFeH4Cl3O2
_symmetry_space_group_name_H-M   'P 1'
_cell_length_a   7.32817804
_cell_length_b   9.05840817
_cell_length_c   11.59416786
_cell_angle_alpha   90.00000000
_cell_angle_beta   90.00000000
_cell_angle_gamma   90.00000000
_symmetry_Int_Tables_number   1
_chemical_formula_structural   CsFeH4Cl3O2
_chemical_formula_sum   'Cs4 Fe4 H16 Cl12 O8'
_cell_volume   769.63973587
_cell_formula_units_Z   4
loop_
 _symmetry_equiv_pos_site_id
 _symmetry_equiv_pos_as_xyz
  1  'x, y, z'
loop_
 _atom_site_type_symbol
 _atom_site_label
 _atom_site_symmetry_multiplicity
 _atom_site_fract_x
 _atom_site_fract_y
 _atom_site_fract_z
 _atom_site_occupancy
  Cs  Cs0  1  0.000000  0.750000  0.648009  1
  Cs  Cs1  1  0.000000  0.250000  0.851991  1
  Cs  Cs2  1  0.000000  0.250000  0.351991  1
  Cs  Cs3  1  0.000000  0.750000  0.148009  1
  Fe  Fe4  1  0.471056  0.000000  0.750000  1
  Fe  Fe5  1  0.528944  0.500000  0.750000  1
  Fe  Fe6  1  0.528944  0.000000  0.250000  1
  Fe  Fe7  1  0.471056  0.500000  0.250000  1
  H  H8  1  0.688158  0.979523  0.943667  1
  H  H9  1  0.311842  0.520477  0.943667  1
  H  H10  1  0.311842  0.479523  0.556333  1
  H  H11  1  0.688158  0.020477  0.556333  1
  H  H12  1  0.311842  0.020477  0.056333  1
  H  H13  1  0.688158  0.479523  0.056333  1
  H  H14  1  0.688158  0.520477  0.443667  1
  H  H15  1  0.311842  0.979523  0.443667  1
  H  H16  1  0.692282  0.823136  0.881350  1
  H  H17  1  0.307718  0.676864  0.881350  1
  H  H18  1  0.307718  0.323136  0.618650  1
  H  H19  1  0.692282  0.176864  0.618650  1
  H  H20  1  0.307718  0.176864  0.118650  1
  H  H21  1  0.692282  0.323136  0.118650  1
  H  H22  1  0.692282  0.676864  0.381350  1
  H  H23  1  0.307718  0.823136  0.381350  1
  Cl  Cl24  1  0.500000  0.750000  0.652530  1
  Cl  Cl25  1  0.500000  0.250000  0.847470  1
  Cl  Cl26  1  0.500000  0.250000  0.347470  1
  Cl  Cl27  1  0.500000  0.750000  0.152530  1
  Cl  Cl28  1  0.230992  0.911260  0.889769  1
  Cl  Cl29  1  0.769008  0.588740  0.889769  1
  Cl  Cl30  1  0.769008  0.411259  0.610231  1
  Cl  Cl31  1  0.230992  0.088740  0.610231  1
  Cl  Cl32  1  0.769008  0.088740  0.110231  1
  Cl  Cl33  1  0.230992  0.411259  0.110231  1
  Cl  Cl34  1  0.230992  0.588740  0.389769  1
  Cl  Cl35  1  0.769008  0.911260  0.389769  1
  O  O36  1  0.683822  0.930596  0.867304  1
  O  O37  1  0.316178  0.569404  0.867304  1
  O  O38  1  0.316178  0.430596  0.632696  1
  O  O39  1  0.683822  0.069404  0.632696  1
  O  O40  1  0.316178  0.069404  0.132696  1
  O  O41  1  0.683822  0.430596  0.132696  1
  O  O42  1  0.683822  0.569404  0.367304  1
  O  O43  1  0.316178  0.930596  0.367304  1
