# generated using pymatgen
data_LiFeF4
_symmetry_space_group_name_H-M   'P 1'
_cell_length_a   7.03122584
_cell_length_b   7.03122584
_cell_length_c   7.14595079
_cell_angle_alpha   76.13530290
_cell_angle_beta   103.86469710
_cell_angle_gamma   96.82173623
_symmetry_Int_Tables_number   1
_chemical_formula_structural   LiFeF4
_chemical_formula_sum   'Li4 Fe4 F16'
_cell_volume   332.28984869
_cell_formula_units_Z   4
loop_
 _symmetry_equiv_pos_site_id
 _symmetry_equiv_pos_as_xyz
  1  'x, y, z'
loop_
 _atom_site_type_symbol
 _atom_site_label
 _atom_site_symmetry_multiplicity
 _atom_site_fract_x
 _atom_site_fract_y
 _atom_site_fract_z
 _atom_site_occupancy
  Li  Li0  1  0.797106  0.202894  0.142238  1
  Li  Li1  1  0.818594  0.818594  0.500000  1
  Li  Li2  1  0.181406  0.181406  0.500000  1
  Li  Li3  1  0.202894  0.797106  0.857762  1
  Fe  Fe4  1  0.730535  0.269465  0.591244  1
  Fe  Fe5  1  0.752913  0.752913  0.000000  1
  Fe  Fe6  1  0.247087  0.247087  0.000000  1
  Fe  Fe7  1  0.269465  0.730535  0.408756  1
  F  F8  1  0.858619  0.141381  0.459761  1
  F  F9  1  0.806292  0.193708  0.864462  1
  F  F10  1  0.506227  0.204347  0.113768  1
  F  F11  1  0.795653  0.493773  0.113768  1
  F  F12  1  0.468036  0.201718  0.525582  1
  F  F13  1  0.798282  0.531964  0.525582  1
  F  F14  1  0.806744  0.888016  0.203687  1
  F  F15  1  0.111984  0.193256  0.203687  1
  F  F16  1  0.888016  0.806744  0.796313  1
  F  F17  1  0.193256  0.111984  0.796313  1
  F  F18  1  0.531964  0.798282  0.474418  1
  F  F19  1  0.201718  0.468036  0.474418  1
  F  F20  1  0.204347  0.506227  0.886232  1
  F  F21  1  0.493773  0.795653  0.886232  1
  F  F22  1  0.193708  0.806292  0.135538  1
  F  F23  1  0.141381  0.858619  0.540239  1
