# generated using pymatgen
data_Li2VO2F
_symmetry_space_group_name_H-M   'P 1'
_cell_length_a   7.13729346
_cell_length_b   7.13729346
_cell_length_c   4.06125522
_cell_angle_alpha   90.00000000
_cell_angle_beta   90.00000000
_cell_angle_gamma   147.16963604
_symmetry_Int_Tables_number   1
_chemical_formula_structural   Li2VO2F
_chemical_formula_sum   'Li4 V2 O4 F2'
_cell_volume   112.16302942
_cell_formula_units_Z   2
loop_
 _symmetry_equiv_pos_site_id
 _symmetry_equiv_pos_as_xyz
  1  'x, y, z'
loop_
 _atom_site_type_symbol
 _atom_site_label
 _atom_site_symmetry_multiplicity
 _atom_site_fract_x
 _atom_site_fract_y
 _atom_site_fract_z
 _atom_site_occupancy
  Li  Li0  1  0.072037  0.927963  0.250000  1
  Li  Li1  1  0.927963  0.072037  0.750000  1
  Li  Li2  1  0.238991  0.761009  0.750000  1
  Li  Li3  1  0.761009  0.238991  0.250000  1
  V  V4  1  0.582525  0.417475  0.750000  1
  V  V5  1  0.417475  0.582525  0.250000  1
  O  O6  1  0.091331  0.908669  0.750000  1
  O  O7  1  0.571327  0.428673  0.250000  1
  O  O8  1  0.428673  0.571327  0.750000  1
  O  O9  1  0.908669  0.091331  0.250000  1
  F  F10  1  0.739201  0.260799  0.750000  1
  F  F11  1  0.260799  0.739201  0.250000  1
