# generated using pymatgen
data_Na(BH)5
_symmetry_space_group_name_H-M   'P 1'
_cell_length_a   6.74343660
_cell_length_b   13.34220669
_cell_length_c   12.27343516
_cell_angle_alpha   90.00000000
_cell_angle_beta   119.67202930
_cell_angle_gamma   90.00000000
_symmetry_Int_Tables_number   1
_chemical_formula_structural   Na(BH)5
_chemical_formula_sum   'Na8 B40 H40'
_cell_volume   959.47026472
_cell_formula_units_Z   8
loop_
 _symmetry_equiv_pos_site_id
 _symmetry_equiv_pos_as_xyz
  1  'x, y, z'
loop_
 _atom_site_type_symbol
 _atom_site_label
 _atom_site_symmetry_multiplicity
 _atom_site_fract_x
 _atom_site_fract_y
 _atom_site_fract_z
 _atom_site_occupancy
  Na  Na0  1  0.172319  0.839398  0.998311  1
  Na  Na1  1  0.768673  0.621805  0.006288  1
  Na  Na2  1  0.827681  0.339398  0.501689  1
  Na  Na3  1  0.231327  0.121805  0.493712  1
  Na  Na4  1  0.768673  0.878195  0.506288  1
  Na  Na5  1  0.172319  0.660602  0.498311  1
  Na  Na6  1  0.231327  0.378195  0.993712  1
  Na  Na7  1  0.827681  0.160602  0.001689  1
  B  B8  1  0.260729  0.585107  0.077534  1
  B  B9  1  0.286256  0.163655  0.105631  1
  B  B10  1  0.480158  0.668440  0.122801  1
  B  B11  1  0.386641  0.047806  0.164437  1
  B  B12  1  0.569664  0.147202  0.164921  1
  B  B13  1  0.265448  0.678581  0.173272  1
  B  B14  1  0.526855  0.536950  0.172061  1
  B  B15  1  0.312543  0.547077  0.222542  1
  B  B16  1  0.265915  0.133261  0.234376  1
  B  B17  1  0.451833  0.233934  0.234546  1
  B  B18  1  0.548167  0.733934  0.265454  1
  B  B19  1  0.734085  0.633261  0.265624  1
  B  B20  1  0.687457  0.047077  0.277458  1
  B  B21  1  0.473145  0.036950  0.327939  1
  B  B22  1  0.734552  0.178581  0.326728  1
  B  B23  1  0.430336  0.647202  0.335079  1
  B  B24  1  0.613359  0.547806  0.335563  1
  B  B25  1  0.519842  0.168440  0.377199  1
  B  B26  1  0.713744  0.663655  0.394369  1
  B  B27  1  0.739271  0.085107  0.422466  1
  B  B28  1  0.260729  0.914893  0.577534  1
  B  B29  1  0.286256  0.336345  0.605631  1
  B  B30  1  0.480158  0.831560  0.622801  1
  B  B31  1  0.386641  0.452194  0.664437  1
  B  B32  1  0.569664  0.352798  0.664921  1
  B  B33  1  0.265448  0.821419  0.673272  1
  B  B34  1  0.526855  0.963050  0.672061  1
  B  B35  1  0.312543  0.952923  0.722542  1
  B  B36  1  0.265915  0.366739  0.734376  1
  B  B37  1  0.451833  0.266066  0.734546  1
  B  B38  1  0.548167  0.766066  0.765454  1
  B  B39  1  0.734085  0.866739  0.765624  1
  B  B40  1  0.687457  0.452923  0.777458  1
  B  B41  1  0.473145  0.463050  0.827939  1
  B  B42  1  0.734552  0.321419  0.826728  1
  B  B43  1  0.430336  0.852798  0.835079  1
  B  B44  1  0.613359  0.952194  0.835563  1
  B  B45  1  0.519842  0.331560  0.877199  1
  B  B46  1  0.713744  0.836345  0.894369  1
  B  B47  1  0.739271  0.414893  0.922466  1
  H  H48  1  0.847273  0.812802  0.999974  1
  H  H49  1  0.882676  0.437565  0.026807  1
  H  H50  1  0.500287  0.712891  0.043189  1
  H  H51  1  0.310087  0.976916  0.096178  1
  H  H52  1  0.643800  0.165343  0.097140  1
  H  H53  1  0.598615  0.467258  0.139205  1
  H  H54  1  0.106647  0.734390  0.145454  1
  H  H55  1  0.435495  0.323609  0.232441  1
  H  H56  1  0.195380  0.485972  0.235545  1
  H  H57  1  0.086481  0.134496  0.233808  1
  H  H58  1  0.913519  0.634496  0.266192  1
  H  H59  1  0.564505  0.823609  0.267559  1
  H  H60  1  0.804620  0.985972  0.264455  1
  H  H61  1  0.401385  0.967258  0.360795  1
  H  H62  1  0.893353  0.234390  0.354546  1
  H  H63  1  0.689913  0.476916  0.403822  1
  H  H64  1  0.356200  0.665343  0.402860  1
  H  H65  1  0.499713  0.212891  0.456811  1
  H  H66  1  0.847273  0.687198  0.499974  1
  H  H67  1  0.882676  0.062435  0.526807  1
  H  H68  1  0.117324  0.937565  0.473193  1
  H  H69  1  0.152727  0.312802  0.500026  1
  H  H70  1  0.500287  0.787109  0.543189  1
  H  H71  1  0.643800  0.334657  0.597140  1
  H  H72  1  0.310087  0.523084  0.596178  1
  H  H73  1  0.106647  0.765610  0.645454  1
  H  H74  1  0.598615  0.032742  0.639205  1
  H  H75  1  0.195380  0.014028  0.735545  1
  H  H76  1  0.435495  0.176391  0.732441  1
  H  H77  1  0.086481  0.365504  0.733808  1
  H  H78  1  0.913519  0.865504  0.766192  1
  H  H79  1  0.804620  0.514028  0.764455  1
  H  H80  1  0.564505  0.676391  0.767559  1
  H  H81  1  0.893353  0.265610  0.854546  1
  H  H82  1  0.401385  0.532742  0.860795  1
  H  H83  1  0.356200  0.834657  0.902860  1
  H  H84  1  0.689913  0.023084  0.903822  1
  H  H85  1  0.499713  0.287109  0.956811  1
  H  H86  1  0.117324  0.562435  0.973193  1
  H  H87  1  0.152727  0.187198  0.000026  1
