# generated using pymatgen
data_Li2NiSnO4
_symmetry_space_group_name_H-M   'P 1'
_cell_length_a   5.36367390
_cell_length_b   5.36367390
_cell_length_c   5.36367390
_cell_angle_alpha   133.52221757
_cell_angle_beta   133.52221757
_cell_angle_gamma   67.83521839
_symmetry_Int_Tables_number   1
_chemical_formula_structural   Li2NiSnO4
_chemical_formula_sum   'Li2 Ni1 Sn1 O4'
_cell_volume   79.74079574
_cell_formula_units_Z   1
loop_
 _symmetry_equiv_pos_site_id
 _symmetry_equiv_pos_as_xyz
  1  'x, y, z'
loop_
 _atom_site_type_symbol
 _atom_site_label
 _atom_site_symmetry_multiplicity
 _atom_site_fract_x
 _atom_site_fract_y
 _atom_site_fract_z
 _atom_site_occupancy
  Li  Li0  1  0.250000  0.750000  0.500000  1
  Li  Li1  1  0.500000  0.500000  0.000000  1
  Ni  Ni2  1  0.000000  0.000000  0.000000  1
  Sn  Sn3  1  0.750000  0.250000  0.500000  1
  O  O4  1  0.520933  0.020933  0.500000  1
  O  O5  1  0.236659  0.236659  0.000000  1
  O  O6  1  0.979067  0.479067  0.500000  1
  O  O7  1  0.763341  0.763341  0.000000  1
