# generated using pymatgen
data_Li5BO4
_symmetry_space_group_name_H-M   'P 1'
_cell_length_a   4.96069381
_cell_length_b   8.64407863
_cell_length_c   15.18050233
_cell_angle_alpha   90.00000000
_cell_angle_beta   90.00000000
_cell_angle_gamma   90.00000000
_symmetry_Int_Tables_number   1
_chemical_formula_structural   Li5BO4
_chemical_formula_sum   'Li40 B8 O32'
_cell_volume   650.94946344
_cell_formula_units_Z   8
loop_
 _symmetry_equiv_pos_site_id
 _symmetry_equiv_pos_as_xyz
  1  'x, y, z'
loop_
 _atom_site_type_symbol
 _atom_site_label
 _atom_site_symmetry_multiplicity
 _atom_site_fract_x
 _atom_site_fract_y
 _atom_site_fract_z
 _atom_site_occupancy
  Li  Li0  1  0.918475  0.944425  0.435628  1
  Li  Li1  1  0.581525  0.944425  0.935628  1
  Li  Li2  1  0.399846  0.924354  0.751323  1
  Li  Li3  1  0.100154  0.924354  0.251323  1
  Li  Li4  1  0.087682  0.840160  0.004037  1
  Li  Li5  1  0.412318  0.840160  0.504037  1
  Li  Li6  1  0.896286  0.827333  0.827783  1
  Li  Li7  1  0.603714  0.827333  0.327783  1
  Li  Li8  1  0.422838  0.798564  0.139580  1
  Li  Li9  1  0.077162  0.798564  0.639580  1
  Li  Li10  1  0.922838  0.701436  0.139580  1
  Li  Li11  1  0.577162  0.701436  0.639580  1
  Li  Li12  1  0.396286  0.672667  0.827783  1
  Li  Li13  1  0.103714  0.672667  0.327783  1
  Li  Li14  1  0.587682  0.659840  0.004037  1
  Li  Li15  1  0.912318  0.659840  0.504037  1
  Li  Li16  1  0.600154  0.575646  0.251323  1
  Li  Li17  1  0.899846  0.575646  0.751323  1
  Li  Li18  1  0.081525  0.555575  0.935628  1
  Li  Li19  1  0.418475  0.555575  0.435628  1
  Li  Li20  1  0.918475  0.444425  0.064372  1
  Li  Li21  1  0.581525  0.444425  0.564372  1
  Li  Li22  1  0.100154  0.424354  0.248677  1
  Li  Li23  1  0.399846  0.424354  0.748677  1
  Li  Li24  1  0.412318  0.340160  0.995963  1
  Li  Li25  1  0.087682  0.340160  0.495963  1
  Li  Li26  1  0.603714  0.327333  0.172217  1
  Li  Li27  1  0.896286  0.327333  0.672217  1
  Li  Li28  1  0.422838  0.298564  0.360420  1
  Li  Li29  1  0.077162  0.298564  0.860420  1
  Li  Li30  1  0.922838  0.201436  0.360420  1
  Li  Li31  1  0.577162  0.201436  0.860420  1
  Li  Li32  1  0.396286  0.172667  0.672217  1
  Li  Li33  1  0.103714  0.172667  0.172217  1
  Li  Li34  1  0.587682  0.159840  0.495963  1
  Li  Li35  1  0.912318  0.159840  0.995963  1
  Li  Li36  1  0.899846  0.075646  0.748677  1
  Li  Li37  1  0.600154  0.075646  0.248677  1
  Li  Li38  1  0.081525  0.055575  0.564372  1
  Li  Li39  1  0.418475  0.055575  0.064372  1
  B  B40  1  0.824755  0.959864  0.125031  1
  B  B41  1  0.675245  0.959864  0.625031  1
  B  B42  1  0.324755  0.540136  0.125031  1
  B  B43  1  0.175245  0.540136  0.625031  1
  B  B44  1  0.824755  0.459864  0.374969  1
  B  B45  1  0.675245  0.459864  0.874969  1
  B  B46  1  0.324755  0.040136  0.374969  1
  B  B47  1  0.175245  0.040136  0.874969  1
  O  O48  1  0.125110  0.953985  0.120414  1
  O  O49  1  0.374890  0.953985  0.620414  1
  O  O50  1  0.735270  0.877320  0.209005  1
  O  O51  1  0.764730  0.877320  0.709005  1
  O  O52  1  0.699460  0.875988  0.048230  1
  O  O53  1  0.800540  0.875988  0.548230  1
  O  O54  1  0.234624  0.871700  0.373215  1
  O  O55  1  0.265376  0.871700  0.873215  1
  O  O56  1  0.734624  0.628300  0.373215  1
  O  O57  1  0.765376  0.628300  0.873215  1
  O  O58  1  0.199460  0.624012  0.048230  1
  O  O59  1  0.300540  0.624012  0.548230  1
  O  O60  1  0.264730  0.622680  0.709005  1
  O  O61  1  0.235270  0.622680  0.209005  1
  O  O62  1  0.625110  0.546015  0.120414  1
  O  O63  1  0.874890  0.546015  0.620414  1
  O  O64  1  0.125110  0.453985  0.379586  1
  O  O65  1  0.374890  0.453985  0.879586  1
  O  O66  1  0.764730  0.377320  0.790995  1
  O  O67  1  0.735270  0.377320  0.290995  1
  O  O68  1  0.800540  0.375988  0.951770  1
  O  O69  1  0.699460  0.375988  0.451770  1
  O  O70  1  0.234624  0.371700  0.126785  1
  O  O71  1  0.265376  0.371700  0.626785  1
  O  O72  1  0.765376  0.128300  0.626785  1
  O  O73  1  0.734624  0.128300  0.126785  1
  O  O74  1  0.199460  0.124012  0.451770  1
  O  O75  1  0.300540  0.124012  0.951770  1
  O  O76  1  0.264730  0.122680  0.790995  1
  O  O77  1  0.235270  0.122680  0.290995  1
  O  O78  1  0.625110  0.046015  0.379586  1
  O  O79  1  0.874890  0.046015  0.879586  1
