# generated using pymatgen
data_SiGeO3
_symmetry_space_group_name_H-M   'P 1'
_cell_length_a   5.42094784
_cell_length_b   9.43247159
_cell_length_c   20.06183978
_cell_angle_alpha   90.00000000
_cell_angle_beta   90.00000000
_cell_angle_gamma   90.00000000
_symmetry_Int_Tables_number   1
_chemical_formula_structural   SiGeO3
_chemical_formula_sum   'Si16 Ge16 O48'
_cell_volume   1025.82077938
_cell_formula_units_Z   16
loop_
 _symmetry_equiv_pos_site_id
 _symmetry_equiv_pos_as_xyz
  1  'x, y, z'
loop_
 _atom_site_type_symbol
 _atom_site_label
 _atom_site_symmetry_multiplicity
 _atom_site_fract_x
 _atom_site_fract_y
 _atom_site_fract_z
 _atom_site_occupancy
  Si  Si0  1  0.734376  0.349614  0.002867  1
  Si  Si1  1  0.234376  0.150386  0.002867  1
  Si  Si2  1  0.515218  0.348941  0.247691  1
  Si  Si3  1  0.015218  0.151059  0.247691  1
  Si  Si4  1  0.515218  0.848941  0.252309  1
  Si  Si5  1  0.015218  0.651059  0.252309  1
  Si  Si6  1  0.734376  0.849614  0.497133  1
  Si  Si7  1  0.234376  0.650386  0.497133  1
  Si  Si8  1  0.765624  0.349614  0.502867  1
  Si  Si9  1  0.265624  0.150386  0.502867  1
  Si  Si10  1  0.984782  0.348941  0.747691  1
  Si  Si11  1  0.484782  0.151059  0.747691  1
  Si  Si12  1  0.984782  0.848941  0.752309  1
  Si  Si13  1  0.484782  0.651059  0.752309  1
  Si  Si14  1  0.765624  0.849614  0.997133  1
  Si  Si15  1  0.265624  0.650386  0.997133  1
  Ge  Ge16  1  0.633030  0.084597  0.124789  1
  Ge  Ge17  1  0.133030  0.415403  0.124789  1
  Ge  Ge18  1  0.629213  0.598128  0.125391  1
  Ge  Ge19  1  0.129213  0.901872  0.125391  1
  Ge  Ge20  1  0.129213  0.401872  0.374609  1
  Ge  Ge21  1  0.629213  0.098128  0.374609  1
  Ge  Ge22  1  0.133030  0.915403  0.375211  1
  Ge  Ge23  1  0.633030  0.584597  0.375211  1
  Ge  Ge24  1  0.366970  0.415403  0.624789  1
  Ge  Ge25  1  0.866970  0.084597  0.624789  1
  Ge  Ge26  1  0.370787  0.901872  0.625391  1
  Ge  Ge27  1  0.870787  0.598128  0.625391  1
  Ge  Ge28  1  0.370787  0.401872  0.874609  1
  Ge  Ge29  1  0.870787  0.098128  0.874609  1
  Ge  Ge30  1  0.366970  0.915403  0.875211  1
  Ge  Ge31  1  0.866970  0.584597  0.875211  1
  O  O32  1  0.970901  0.238554  0.005522  1
  O  O33  1  0.470901  0.261446  0.005522  1
  O  O34  1  0.784005  0.936778  0.067763  1
  O  O35  1  0.284005  0.563222  0.067763  1
  O  O36  1  0.778842  0.454751  0.066715  1
  O  O37  1  0.278842  0.045249  0.066715  1
  O  O38  1  0.484534  0.940466  0.183405  1
  O  O39  1  0.984534  0.559534  0.183405  1
  O  O40  1  0.980246  0.051125  0.181427  1
  O  O41  1  0.480246  0.448875  0.181427  1
  O  O42  1  0.780877  0.263983  0.245648  1
  O  O43  1  0.280877  0.236017  0.245648  1
  O  O44  1  0.280877  0.736017  0.254352  1
  O  O45  1  0.780877  0.763983  0.254352  1
  O  O46  1  0.980246  0.551125  0.318573  1
  O  O47  1  0.480246  0.948875  0.318573  1
  O  O48  1  0.484534  0.440466  0.316595  1
  O  O49  1  0.984534  0.059534  0.316595  1
  O  O50  1  0.778842  0.954751  0.433285  1
  O  O51  1  0.278842  0.545249  0.433285  1
  O  O52  1  0.784005  0.436778  0.432237  1
  O  O53  1  0.284005  0.063222  0.432237  1
  O  O54  1  0.470901  0.761446  0.494478  1
  O  O55  1  0.970901  0.738554  0.494478  1
  O  O56  1  0.029099  0.261446  0.505522  1
  O  O57  1  0.529099  0.238554  0.505522  1
  O  O58  1  0.715995  0.936778  0.567763  1
  O  O59  1  0.215995  0.563222  0.567763  1
  O  O60  1  0.721158  0.454751  0.566715  1
  O  O61  1  0.221158  0.045249  0.566715  1
  O  O62  1  0.015466  0.940466  0.683405  1
  O  O63  1  0.515466  0.559534  0.683405  1
  O  O64  1  0.519754  0.051125  0.681427  1
  O  O65  1  0.019754  0.448875  0.681427  1
  O  O66  1  0.219123  0.236017  0.745648  1
  O  O67  1  0.719123  0.263983  0.745648  1
  O  O68  1  0.219123  0.736017  0.754352  1
  O  O69  1  0.719123  0.763983  0.754352  1
  O  O70  1  0.519754  0.551125  0.818573  1
  O  O71  1  0.019754  0.948875  0.818573  1
  O  O72  1  0.015466  0.440466  0.816595  1
  O  O73  1  0.515466  0.059534  0.816595  1
  O  O74  1  0.721158  0.954751  0.933285  1
  O  O75  1  0.221158  0.545249  0.933285  1
  O  O76  1  0.715995  0.436778  0.932237  1
  O  O77  1  0.215995  0.063222  0.932237  1
  O  O78  1  0.029099  0.761446  0.994478  1
  O  O79  1  0.529099  0.738554  0.994478  1
