# generated using pymatgen
data_Li8MnO6
_symmetry_space_group_name_H-M   'P 1'
_cell_length_a   5.85768947
_cell_length_b   5.85768947
_cell_length_c   5.85768947
_cell_angle_alpha   54.88892369
_cell_angle_beta   54.88892369
_cell_angle_gamma   54.88892369
_symmetry_Int_Tables_number   1
_chemical_formula_structural   Li8MnO6
_chemical_formula_sum   'Li8 Mn1 O6'
_cell_volume   125.21408648
_cell_formula_units_Z   1
loop_
 _symmetry_equiv_pos_site_id
 _symmetry_equiv_pos_as_xyz
  1  'x, y, z'
loop_
 _atom_site_type_symbol
 _atom_site_label
 _atom_site_symmetry_multiplicity
 _atom_site_fract_x
 _atom_site_fract_y
 _atom_site_fract_z
 _atom_site_occupancy
  Li  Li0  1  0.097485  0.489737  0.763443  1
  Li  Li1  1  0.510263  0.236557  0.902515  1
  Li  Li2  1  0.236557  0.902515  0.510263  1
  Li  Li3  1  0.342107  0.342107  0.342107  1
  Li  Li4  1  0.657893  0.657893  0.657893  1
  Li  Li5  1  0.763443  0.097485  0.489737  1
  Li  Li6  1  0.489737  0.763443  0.097485  1
  Li  Li7  1  0.902515  0.510263  0.236557  1
  Mn  Mn8  1  0.000000  0.000000  0.000000  1
  O  O9  1  0.229891  0.628015  0.909973  1
  O  O10  1  0.371985  0.090027  0.770109  1
  O  O11  1  0.090027  0.770109  0.371985  1
  O  O12  1  0.909973  0.229891  0.628015  1
  O  O13  1  0.628015  0.909973  0.229891  1
  O  O14  1  0.770109  0.371985  0.090027  1
