# generated using pymatgen
data_Dy2Cu2O5
_symmetry_space_group_name_H-M   'P 1'
_cell_length_a   3.53331150
_cell_length_b   10.90047164
_cell_length_c   12.59045865
_cell_angle_alpha   90.00000000
_cell_angle_beta   90.00000000
_cell_angle_gamma   90.00000000
_symmetry_Int_Tables_number   1
_chemical_formula_structural   Dy2Cu2O5
_chemical_formula_sum   'Dy8 Cu8 O20'
_cell_volume   484.91851587
_cell_formula_units_Z   4
loop_
 _symmetry_equiv_pos_site_id
 _symmetry_equiv_pos_as_xyz
  1  'x, y, z'
loop_
 _atom_site_type_symbol
 _atom_site_label
 _atom_site_symmetry_multiplicity
 _atom_site_fract_x
 _atom_site_fract_y
 _atom_site_fract_z
 _atom_site_occupancy
  Dy  Dy0  1  0.782741  0.791089  0.001134  1
  Dy  Dy1  1  0.717259  0.291089  0.001134  1
  Dy  Dy2  1  0.778095  0.957971  0.328872  1
  Dy  Dy3  1  0.721905  0.457971  0.328872  1
  Dy  Dy4  1  0.282741  0.708911  0.501134  1
  Dy  Dy5  1  0.217259  0.208911  0.501134  1
  Dy  Dy6  1  0.278095  0.542029  0.828872  1
  Dy  Dy7  1  0.221905  0.042029  0.828872  1
  Cu  Cu8  1  0.160747  0.510016  0.112458  1
  Cu  Cu9  1  0.339253  0.010016  0.112458  1
  Cu  Cu10  1  0.345839  0.738102  0.216506  1
  Cu  Cu11  1  0.154161  0.238102  0.216506  1
  Cu  Cu12  1  0.660747  0.989984  0.612458  1
  Cu  Cu13  1  0.839253  0.489984  0.612458  1
  Cu  Cu14  1  0.845839  0.761898  0.716506  1
  Cu  Cu15  1  0.654161  0.261898  0.716506  1
  O  O16  1  0.286085  0.675842  0.065970  1
  O  O17  1  0.213915  0.175842  0.065970  1
  O  O18  1  0.660276  0.874863  0.164813  1
  O  O19  1  0.839724  0.374863  0.164813  1
  O  O20  1  0.223584  0.572040  0.262208  1
  O  O21  1  0.276416  0.072040  0.262208  1
  O  O22  1  0.275934  0.826086  0.355188  1
  O  O23  1  0.224066  0.326086  0.355188  1
  O  O24  1  0.776263  0.577306  0.473352  1
  O  O25  1  0.723737  0.077306  0.473352  1
  O  O26  1  0.786085  0.824158  0.565970  1
  O  O27  1  0.713915  0.324158  0.565970  1
  O  O28  1  0.160276  0.625137  0.664813  1
  O  O29  1  0.339724  0.125137  0.664813  1
  O  O30  1  0.723584  0.927960  0.762208  1
  O  O31  1  0.776416  0.427960  0.762208  1
  O  O32  1  0.775934  0.673914  0.855188  1
  O  O33  1  0.724066  0.173914  0.855188  1
  O  O34  1  0.276263  0.922694  0.973352  1
  O  O35  1  0.223737  0.422694  0.973352  1
