# generated using pymatgen
data_VH2SeO5
_symmetry_space_group_name_H-M   'P 1'
_cell_length_a   6.14342468
_cell_length_b   6.28762319
_cell_length_c   6.44461645
_cell_angle_alpha   92.10613311
_cell_angle_beta   101.25823304
_cell_angle_gamma   117.87799015
_symmetry_Int_Tables_number   1
_chemical_formula_structural   VH2SeO5
_chemical_formula_sum   'V2 H4 Se2 O10'
_cell_volume   213.44797756
_cell_formula_units_Z   2
loop_
 _symmetry_equiv_pos_site_id
 _symmetry_equiv_pos_as_xyz
  1  'x, y, z'
loop_
 _atom_site_type_symbol
 _atom_site_label
 _atom_site_symmetry_multiplicity
 _atom_site_fract_x
 _atom_site_fract_y
 _atom_site_fract_z
 _atom_site_occupancy
  V  V0  1  0.722348  0.708205  0.689206  1
  V  V1  1  0.277652  0.291795  0.310794  1
  H  H2  1  0.795069  0.289493  0.577557  1
  H  H3  1  0.204931  0.710507  0.422443  1
  H  H4  1  0.990333  0.423206  0.797672  1
  H  H5  1  0.009667  0.576794  0.202328  1
  Se  Se6  1  0.661952  0.808217  0.157899  1
  Se  Se7  1  0.338048  0.191783  0.842101  1
  O  O8  1  0.611888  0.899996  0.706842  1
  O  O9  1  0.388112  0.100004  0.293158  1
  O  O10  1  0.859597  0.430204  0.686771  1
  O  O11  1  0.140403  0.569796  0.313229  1
  O  O12  1  0.794727  0.682820  0.010245  1
  O  O13  1  0.205273  0.317180  0.989755  1
  O  O14  1  0.907744  0.072823  0.298120  1
  O  O15  1  0.092256  0.927177  0.701880  1
  O  O16  1  0.624907  0.613012  0.361055  1
  O  O17  1  0.375093  0.386988  0.638945  1
