# generated using pymatgen
data_Tl2Mo7O22
_symmetry_space_group_name_H-M   'P 1'
_cell_length_a   10.87674864
_cell_length_b   10.87674864
_cell_length_c   19.02044241
_cell_angle_alpha   60.39468343
_cell_angle_beta   119.60531657
_cell_angle_gamma   149.87036944
_symmetry_Int_Tables_number   1
_chemical_formula_structural   Tl2Mo7O22
_chemical_formula_sum   'Tl4 Mo14 O44'
_cell_volume   970.48977205
_cell_formula_units_Z   2
loop_
 _symmetry_equiv_pos_site_id
 _symmetry_equiv_pos_as_xyz
  1  'x, y, z'
loop_
 _atom_site_type_symbol
 _atom_site_label
 _atom_site_symmetry_multiplicity
 _atom_site_fract_x
 _atom_site_fract_y
 _atom_site_fract_z
 _atom_site_occupancy
  Tl  Tl0  1  0.563491  0.852515  0.332810  1
  Tl  Tl1  1  0.436509  0.147485  0.667190  1
  Tl  Tl2  1  0.852515  0.563491  0.167190  1
  Tl  Tl3  1  0.147485  0.436509  0.832810  1
  Mo  Mo4  1  0.783005  0.719588  0.907285  1
  Mo  Mo5  1  0.692801  0.025186  0.637621  1
  Mo  Mo6  1  0.610684  0.610684  0.250000  1
  Mo  Mo7  1  0.389316  0.389316  0.750000  1
  Mo  Mo8  1  0.377394  0.010026  0.025625  1
  Mo  Mo9  1  0.719588  0.783005  0.592715  1
  Mo  Mo10  1  0.622606  0.989974  0.974375  1
  Mo  Mo11  1  0.989974  0.622606  0.525625  1
  Mo  Mo12  1  0.010026  0.377395  0.474375  1
  Mo  Mo13  1  0.974814  0.307199  0.137621  1
  Mo  Mo14  1  0.307199  0.974814  0.362379  1
  Mo  Mo15  1  0.216995  0.280412  0.092715  1
  Mo  Mo16  1  0.025186  0.692801  0.862379  1
  Mo  Mo17  1  0.280412  0.216995  0.407285  1
  O  O18  1  0.197627  0.942512  0.454580  1
  O  O19  1  0.802373  0.057488  0.545420  1
  O  O20  1  0.913114  0.272353  0.219095  1
  O  O21  1  0.992572  0.055030  0.359116  1
  O  O22  1  0.086886  0.727647  0.780905  1
  O  O23  1  0.627616  0.778652  0.678975  1
  O  O24  1  0.336753  0.985004  0.111375  1
  O  O25  1  0.725763  0.877532  0.197627  1
  O  O26  1  0.599749  0.140459  0.415799  1
  O  O27  1  0.274237  0.122468  0.802373  1
  O  O28  1  0.744281  0.685916  0.996263  1
  O  O29  1  0.314084  0.255719  0.496263  1
  O  O30  1  0.944970  0.007428  0.859116  1
  O  O31  1  0.372384  0.221348  0.321025  1
  O  O32  1  0.697325  0.450851  0.473451  1
  O  O33  1  0.057488  0.802373  0.954580  1
  O  O34  1  0.122468  0.274237  0.697627  1
  O  O35  1  0.859541  0.400251  0.915799  1
  O  O36  1  0.358741  0.913324  0.933223  1
  O  O37  1  0.663247  0.014996  0.888625  1
  O  O38  1  0.913324  0.358741  0.566777  1
  O  O39  1  0.489994  0.533536  0.334574  1
  O  O40  1  0.450851  0.697325  0.026549  1
  O  O41  1  0.533536  0.489994  0.165426  1
  O  O42  1  0.221348  0.372384  0.178975  1
  O  O43  1  0.877532  0.725763  0.302373  1
  O  O44  1  0.302675  0.549149  0.526549  1
  O  O45  1  0.466464  0.510006  0.834574  1
  O  O46  1  0.086676  0.641259  0.433223  1
  O  O47  1  0.727647  0.086886  0.719095  1
  O  O48  1  0.510006  0.466464  0.665426  1
  O  O49  1  0.055030  0.992572  0.140884  1
  O  O50  1  0.685916  0.744281  0.503737  1
  O  O51  1  0.942512  0.197627  0.045420  1
  O  O52  1  0.400251  0.859541  0.584201  1
  O  O53  1  0.272353  0.913114  0.280905  1
  O  O54  1  0.985004  0.336753  0.388625  1
  O  O55  1  0.255719  0.314084  0.003737  1
  O  O56  1  0.007428  0.944970  0.640884  1
  O  O57  1  0.549149  0.302675  0.973451  1
  O  O58  1  0.014996  0.663247  0.611375  1
  O  O59  1  0.778652  0.627616  0.821025  1
  O  O60  1  0.641259  0.086676  0.066777  1
  O  O61  1  0.140459  0.599749  0.084201  1
