# generated using pymatgen
data_LiFe2OF5
_symmetry_space_group_name_H-M   'P 1'
_cell_length_a   4.57237905
_cell_length_b   8.67308507
_cell_length_c   8.69536023
_cell_angle_alpha   60.17248504
_cell_angle_beta   89.21012468
_cell_angle_gamma   88.64657271
_symmetry_Int_Tables_number   1
_chemical_formula_structural   LiFe2OF5
_chemical_formula_sum   'Li3 Fe6 O3 F15'
_cell_volume   299.06382430
_cell_formula_units_Z   3
loop_
 _symmetry_equiv_pos_site_id
 _symmetry_equiv_pos_as_xyz
  1  'x, y, z'
loop_
 _atom_site_type_symbol
 _atom_site_label
 _atom_site_symmetry_multiplicity
 _atom_site_fract_x
 _atom_site_fract_y
 _atom_site_fract_z
 _atom_site_occupancy
  Li  Li0  1  0.502537  0.336388  0.328836  1
  Li  Li1  1  0.002012  0.004104  0.994275  1
  Li  Li2  1  0.495455  0.664967  0.662199  1
  Fe  Fe3  1  0.985523  0.356815  0.007905  1
  Fe  Fe4  1  0.517935  0.672392  0.005782  1
  Fe  Fe5  1  0.983713  0.657742  0.357584  1
  Fe  Fe6  1  0.513705  0.987894  0.321971  1
  Fe  Fe7  1  0.515847  0.300585  0.691866  1
  Fe  Fe8  1  0.985247  0.005893  0.656002  1
  O  O9  1  0.739641  0.460252  0.103245  1
  O  O10  1  0.734111  0.777510  0.435970  1
  O  O11  1  0.767901  0.106112  0.769519  1
  F  F12  1  0.765042  0.122380  0.107007  1
  F  F13  1  0.263811  0.219344  0.214906  1
  F  F14  1  0.741672  0.106543  0.435434  1
  F  F15  1  0.767042  0.776054  0.117317  1
  F  F16  1  0.260175  0.570620  0.223802  1
  F  F17  1  0.264965  0.216307  0.558266  1
  F  F18  1  0.234422  0.883433  0.223802  1
  F  F19  1  0.741437  0.438253  0.456636  1
  F  F20  1  0.256831  0.535951  0.564170  1
  F  F21  1  0.252273  0.901357  0.541368  1
  F  F22  1  0.235731  0.231430  0.893228  1
  F  F23  1  0.736085  0.435292  0.785661  1
  F  F24  1  0.737921  0.783390  0.773319  1
  F  F25  1  0.255852  0.563849  0.891536  1
  F  F26  1  0.243115  0.885144  0.878296  1
