# generated using pymatgen
data_VFe2Ni3(PO4)6
_symmetry_space_group_name_H-M   'P 1'
_cell_length_a   8.38459132
_cell_length_b   8.38459132
_cell_length_c   8.38459132
_cell_angle_alpha   62.07584085
_cell_angle_beta   62.07584085
_cell_angle_gamma   62.07584085
_symmetry_Int_Tables_number   1
_chemical_formula_structural   VFe2Ni3(PO4)6
_chemical_formula_sum   'V1 Fe2 Ni3 P6 O24'
_cell_volume   436.14499090
_cell_formula_units_Z   1
loop_
 _symmetry_equiv_pos_site_id
 _symmetry_equiv_pos_as_xyz
  1  'x, y, z'
loop_
 _atom_site_type_symbol
 _atom_site_label
 _atom_site_symmetry_multiplicity
 _atom_site_fract_x
 _atom_site_fract_y
 _atom_site_fract_z
 _atom_site_occupancy
  V  V0  1  0.145441  0.145441  0.145441  1
  Fe  Fe1  1  0.995805  0.995805  0.995805  1
  Fe  Fe2  1  0.497851  0.497851  0.497851  1
  Ni  Ni3  1  0.642644  0.642644  0.642644  1
  Ni  Ni4  1  0.855062  0.855062  0.855062  1
  Ni  Ni5  1  0.358052  0.358052  0.358052  1
  P  P6  1  0.953772  0.254009  0.547477  1
  P  P7  1  0.547477  0.953772  0.254009  1
  P  P8  1  0.254009  0.547477  0.953772  1
  P  P9  1  0.751015  0.453053  0.046615  1
  P  P10  1  0.453053  0.046615  0.751015  1
  P  P11  1  0.046615  0.751015  0.453053  1
  O  O12  1  0.502867  0.105107  0.329261  1
  O  O13  1  0.329261  0.502867  0.105107  1
  O  O14  1  0.105107  0.329261  0.502867  1
  O  O15  1  0.939734  0.096750  0.745785  1
  O  O16  1  0.015965  0.173859  0.379474  1
  O  O17  1  0.753614  0.399714  0.547376  1
  O  O18  1  0.745785  0.939734  0.096750  1
  O  O19  1  0.547376  0.753614  0.399714  1
  O  O20  1  0.827900  0.602464  0.008202  1
  O  O21  1  0.399714  0.547376  0.753614  1
  O  O22  1  0.912521  0.245104  0.068073  1
  O  O23  1  0.602464  0.008202  0.827900  1
  O  O24  1  0.379474  0.015965  0.173859  1
  O  O25  1  0.096750  0.745785  0.939734  1
  O  O26  1  0.600681  0.433834  0.250678  1
  O  O27  1  0.173859  0.379474  0.015965  1
  O  O28  1  0.433834  0.250678  0.600681  1
  O  O29  1  0.245104  0.068073  0.912521  1
  O  O30  1  0.250678  0.600681  0.433834  1
  O  O31  1  0.008202  0.827900  0.602464  1
  O  O32  1  0.068073  0.912521  0.245104  1
  O  O33  1  0.892371  0.686802  0.481065  1
  O  O34  1  0.686802  0.481065  0.892371  1
  O  O35  1  0.481065  0.892371  0.686802  1
