# generated using pymatgen
data_RbCuO
_symmetry_space_group_name_H-M   'P 1'
_cell_length_a   7.39614544
_cell_length_b   7.39614544
_cell_length_c   7.39614544
_cell_angle_alpha   99.11501876
_cell_angle_beta   99.11501876
_cell_angle_gamma   133.09156095
_symmetry_Int_Tables_number   1
_chemical_formula_structural   RbCuO
_chemical_formula_sum   'Rb4 Cu4 O4'
_cell_volume   271.04666987
_cell_formula_units_Z   4
loop_
 _symmetry_equiv_pos_site_id
 _symmetry_equiv_pos_as_xyz
  1  'x, y, z'
loop_
 _atom_site_type_symbol
 _atom_site_label
 _atom_site_symmetry_multiplicity
 _atom_site_fract_x
 _atom_site_fract_y
 _atom_site_fract_z
 _atom_site_occupancy
  Rb  Rb0  1  0.195811  0.500000  0.695811  1
  Rb  Rb1  1  0.500000  0.804189  0.304189  1
  Rb  Rb2  1  0.804189  0.500000  0.304189  1
  Rb  Rb3  1  0.500000  0.195811  0.695811  1
  Cu  Cu4  1  0.135460  0.135460  0.270920  1
  Cu  Cu5  1  0.864540  0.864540  0.729080  1
  Cu  Cu6  1  0.864540  0.135460  0.000000  1
  Cu  Cu7  1  0.135460  0.864540  0.000000  1
  O  O8  1  0.000000  0.728184  0.728184  1
  O  O9  1  0.728184  0.000000  0.728184  1
  O  O10  1  0.271816  0.000000  0.271816  1
  O  O11  1  0.000000  0.271816  0.271816  1
