# generated using pymatgen
data_LiVSiO4
_symmetry_space_group_name_H-M   'P 1'
_cell_length_a   5.09166088
_cell_length_b   6.82141900
_cell_length_c   10.41243368
_cell_angle_alpha   90.00000000
_cell_angle_beta   90.00000000
_cell_angle_gamma   90.00000000
_symmetry_Int_Tables_number   1
_chemical_formula_structural   LiVSiO4
_chemical_formula_sum   'Li4 V4 Si4 O16'
_cell_volume   361.64831454
_cell_formula_units_Z   4
loop_
 _symmetry_equiv_pos_site_id
 _symmetry_equiv_pos_as_xyz
  1  'x, y, z'
loop_
 _atom_site_type_symbol
 _atom_site_label
 _atom_site_symmetry_multiplicity
 _atom_site_fract_x
 _atom_site_fract_y
 _atom_site_fract_z
 _atom_site_occupancy
  Li  Li0  1  0.814603  0.286716  0.343911  1
  Li  Li1  1  0.314603  0.786716  0.156089  1
  Li  Li2  1  0.685397  0.286716  0.843911  1
  Li  Li3  1  0.185397  0.786716  0.656089  1
  V  V4  1  0.817033  0.782835  0.341355  1
  V  V5  1  0.317033  0.282835  0.158645  1
  V  V6  1  0.682967  0.782835  0.841355  1
  V  V7  1  0.182967  0.282835  0.658645  1
  Si  Si8  1  0.318131  0.037933  0.406659  1
  Si  Si9  1  0.818131  0.537933  0.093341  1
  Si  Si10  1  0.181869  0.037933  0.906659  1
  Si  Si11  1  0.681869  0.537933  0.593341  1
  O  O12  1  0.755819  0.546707  0.439819  1
  O  O13  1  0.637420  0.027054  0.383097  1
  O  O14  1  0.187953  0.842406  0.338813  1
  O  O15  1  0.201905  0.234525  0.333825  1
  O  O16  1  0.701905  0.734525  0.166175  1
  O  O17  1  0.687953  0.342406  0.161187  1
  O  O18  1  0.137420  0.527054  0.116903  1
  O  O19  1  0.255819  0.046707  0.060181  1
  O  O20  1  0.744181  0.546707  0.939819  1
  O  O21  1  0.862580  0.027054  0.883097  1
  O  O22  1  0.312047  0.842406  0.838813  1
  O  O23  1  0.298095  0.234525  0.833825  1
  O  O24  1  0.798095  0.734525  0.666175  1
  O  O25  1  0.812047  0.342406  0.661187  1
  O  O26  1  0.362580  0.527054  0.616903  1
  O  O27  1  0.244181  0.046707  0.560181  1
