# generated using pymatgen
data_Li2Ni(CO3)2
_symmetry_space_group_name_H-M   'P 1'
_cell_length_a   7.47275549
_cell_length_b   9.55417649
_cell_length_c   9.13106314
_cell_angle_alpha   90.00000000
_cell_angle_beta   122.14511366
_cell_angle_gamma   90.00000000
_symmetry_Int_Tables_number   1
_chemical_formula_structural   Li2Ni(CO3)2
_chemical_formula_sum   'Li8 Ni4 C8 O24'
_cell_volume   551.98414326
_cell_formula_units_Z   4
loop_
 _symmetry_equiv_pos_site_id
 _symmetry_equiv_pos_as_xyz
  1  'x, y, z'
loop_
 _atom_site_type_symbol
 _atom_site_label
 _atom_site_symmetry_multiplicity
 _atom_site_fract_x
 _atom_site_fract_y
 _atom_site_fract_z
 _atom_site_occupancy
  Li  Li0  1  0.381051  0.106260  0.354359  1
  Li  Li1  1  0.925596  0.207196  0.795753  1
  Li  Li2  1  0.618949  0.606260  0.145641  1
  Li  Li3  1  0.074404  0.707196  0.704247  1
  Li  Li4  1  0.925596  0.292804  0.295753  1
  Li  Li5  1  0.381051  0.393740  0.854359  1
  Li  Li6  1  0.074404  0.792804  0.204247  1
  Li  Li7  1  0.618949  0.893740  0.645641  1
  Ni  Ni8  1  0.495578  0.632296  0.439512  1
  Ni  Ni9  1  0.504422  0.132296  0.060488  1
  Ni  Ni10  1  0.495578  0.867704  0.939512  1
  Ni  Ni11  1  0.504422  0.367704  0.560488  1
  C  C12  1  0.464150  0.383711  0.224471  1
  C  C13  1  0.535850  0.883711  0.275529  1
  C  C14  1  0.919366  0.488434  0.662325  1
  C  C15  1  0.080634  0.988434  0.837675  1
  C  C16  1  0.919366  0.011566  0.162325  1
  C  C17  1  0.080634  0.511566  0.337675  1
  C  C18  1  0.464150  0.116289  0.724471  1
  C  C19  1  0.535850  0.616289  0.775529  1
  O  O20  1  0.526818  0.834649  0.405014  1
  O  O21  1  0.459199  0.517858  0.237668  1
  O  O22  1  0.463565  0.298913  0.333333  1
  O  O23  1  0.536435  0.798913  0.166667  1
  O  O24  1  0.540801  0.017858  0.262332  1
  O  O25  1  0.473182  0.334649  0.094986  1
  O  O26  1  0.879409  0.999111  0.751078  1
  O  O27  1  0.825461  0.373837  0.662949  1
  O  O28  1  0.811906  0.598445  0.574553  1
  O  O29  1  0.188094  0.098445  0.925447  1
  O  O30  1  0.174539  0.873837  0.837051  1
  O  O31  1  0.120591  0.499111  0.748922  1
  O  O32  1  0.879409  0.500889  0.251078  1
  O  O33  1  0.825461  0.126163  0.162949  1
  O  O34  1  0.811906  0.901555  0.074553  1
  O  O35  1  0.188094  0.401555  0.425447  1
  O  O36  1  0.174539  0.626163  0.337051  1
  O  O37  1  0.120591  0.000889  0.248922  1
  O  O38  1  0.526818  0.665351  0.905014  1
  O  O39  1  0.459199  0.982142  0.737668  1
  O  O40  1  0.463565  0.201087  0.833333  1
  O  O41  1  0.536435  0.701087  0.666667  1
  O  O42  1  0.540801  0.482142  0.762332  1
  O  O43  1  0.473182  0.165351  0.594986  1
