# generated using pymatgen
data_LiCrPO4
_symmetry_space_group_name_H-M   'P 1'
_cell_length_a   4.98719669
_cell_length_b   4.98719669
_cell_length_c   6.46676021
_cell_angle_alpha   90.00000000
_cell_angle_beta   90.00000000
_cell_angle_gamma   112.00432654
_symmetry_Int_Tables_number   1
_chemical_formula_structural   LiCrPO4
_chemical_formula_sum   'Li2 Cr2 P2 O8'
_cell_volume   149.12565359
_cell_formula_units_Z   2
loop_
 _symmetry_equiv_pos_site_id
 _symmetry_equiv_pos_as_xyz
  1  'x, y, z'
loop_
 _atom_site_type_symbol
 _atom_site_label
 _atom_site_symmetry_multiplicity
 _atom_site_fract_x
 _atom_site_fract_y
 _atom_site_fract_z
 _atom_site_occupancy
  Li  Li0  1  0.500000  0.500000  0.000000  1
  Li  Li1  1  0.500000  0.500000  0.500000  1
  Cr  Cr2  1  0.793555  0.206445  0.250000  1
  Cr  Cr3  1  0.206445  0.793555  0.750000  1
  P  P4  1  0.854653  0.145347  0.750000  1
  P  P5  1  0.145347  0.854653  0.250000  1
  O  O6  1  0.263035  0.191641  0.250000  1
  O  O7  1  0.191641  0.263035  0.750000  1
  O  O8  1  0.256145  0.743855  0.057116  1
  O  O9  1  0.743855  0.256145  0.557116  1
  O  O10  1  0.743855  0.256145  0.942884  1
  O  O11  1  0.256145  0.743855  0.442884  1
  O  O12  1  0.808359  0.736965  0.250000  1
  O  O13  1  0.736965  0.808359  0.750000  1
