# generated using pymatgen
data_TiCrO4
_symmetry_space_group_name_H-M   'P 1'
_cell_length_a   5.55996282
_cell_length_b   5.55996282
_cell_length_c   5.55996282
_cell_angle_alpha   140.62099740
_cell_angle_beta   140.62099740
_cell_angle_gamma   56.91160543
_symmetry_Int_Tables_number   1
_chemical_formula_structural   TiCrO4
_chemical_formula_sum   'Ti1 Cr1 O4'
_cell_volume   68.61460005
_cell_formula_units_Z   1
loop_
 _symmetry_equiv_pos_site_id
 _symmetry_equiv_pos_as_xyz
  1  'x, y, z'
loop_
 _atom_site_type_symbol
 _atom_site_label
 _atom_site_symmetry_multiplicity
 _atom_site_fract_x
 _atom_site_fract_y
 _atom_site_fract_z
 _atom_site_occupancy
  Ti  Ti0  1  0.750000  0.250000  0.500000  1
  Cr  Cr1  1  0.000000  0.000000  0.000000  1
  O  O2  1  0.539402  0.039402  0.500000  1
  O  O3  1  0.202362  0.202362  0.000000  1
  O  O4  1  0.960598  0.460598  0.500000  1
  O  O5  1  0.797638  0.797638  0.000000  1
