# generated using pymatgen
data_Fe5Ni(PO4)6
_symmetry_space_group_name_H-M   'P 1'
_cell_length_a   8.42649363
_cell_length_b   8.42649363
_cell_length_c   8.42649363
_cell_angle_alpha   62.01863665
_cell_angle_beta   62.01863665
_cell_angle_gamma   62.01863665
_symmetry_Int_Tables_number   1
_chemical_formula_structural   Fe5Ni(PO4)6
_chemical_formula_sum   'Fe5 Ni1 P6 O24'
_cell_volume   442.18357733
_cell_formula_units_Z   1
loop_
 _symmetry_equiv_pos_site_id
 _symmetry_equiv_pos_as_xyz
  1  'x, y, z'
loop_
 _atom_site_type_symbol
 _atom_site_label
 _atom_site_symmetry_multiplicity
 _atom_site_fract_x
 _atom_site_fract_y
 _atom_site_fract_z
 _atom_site_occupancy
  Fe  Fe0  1  0.001839  0.001839  0.001839  1
  Fe  Fe1  1  0.646662  0.646662  0.646662  1
  Fe  Fe2  1  0.500268  0.500268  0.500268  1
  Fe  Fe3  1  0.854525  0.854525  0.854525  1
  Fe  Fe4  1  0.353027  0.353027  0.353027  1
  Ni  Ni5  1  0.143646  0.143646  0.143646  1
  P  P6  1  0.952125  0.249477  0.546545  1
  P  P7  1  0.546545  0.952125  0.249477  1
  P  P8  1  0.249477  0.546545  0.952125  1
  P  P9  1  0.750712  0.452066  0.047939  1
  P  P10  1  0.452066  0.047939  0.750712  1
  P  P11  1  0.047939  0.750712  0.452066  1
  O  O12  1  0.504260  0.107224  0.323372  1
  O  O13  1  0.323372  0.504260  0.107224  1
  O  O14  1  0.107224  0.323372  0.504260  1
  O  O15  1  0.937976  0.096781  0.750900  1
  O  O16  1  0.988245  0.179664  0.393410  1
  O  O17  1  0.748148  0.404604  0.565570  1
  O  O18  1  0.750900  0.937976  0.096781  1
  O  O19  1  0.565570  0.748148  0.404604  1
  O  O20  1  0.824842  0.607259  0.004071  1
  O  O21  1  0.404604  0.565570  0.748148  1
  O  O22  1  0.902190  0.250400  0.061171  1
  O  O23  1  0.607259  0.004071  0.824842  1
  O  O24  1  0.393410  0.988245  0.179664  1
  O  O25  1  0.096781  0.750900  0.937976  1
  O  O26  1  0.595394  0.439435  0.250402  1
  O  O27  1  0.179664  0.393410  0.988245  1
  O  O28  1  0.439435  0.250402  0.595394  1
  O  O29  1  0.250400  0.061171  0.902190  1
  O  O30  1  0.250402  0.595394  0.439435  1
  O  O31  1  0.004071  0.824842  0.607259  1
  O  O32  1  0.061171  0.902190  0.250400  1
  O  O33  1  0.893459  0.674863  0.497531  1
  O  O34  1  0.674863  0.497531  0.893459  1
  O  O35  1  0.497531  0.893459  0.674863  1
