# generated using pymatgen
data_UH16C4(NO3)4
_symmetry_space_group_name_H-M   'P 1'
_cell_length_a   8.00305194
_cell_length_b   14.81246065
_cell_length_c   12.21046437
_cell_angle_alpha   90.00000000
_cell_angle_beta   97.34207443
_cell_angle_gamma   90.00000000
_symmetry_Int_Tables_number   1
_chemical_formula_structural   UH16C4(NO3)4
_chemical_formula_sum   'U4 H64 C16 N16 O48'
_cell_volume   1435.62003140
_cell_formula_units_Z   4
loop_
 _symmetry_equiv_pos_site_id
 _symmetry_equiv_pos_as_xyz
  1  'x, y, z'
loop_
 _atom_site_type_symbol
 _atom_site_label
 _atom_site_symmetry_multiplicity
 _atom_site_fract_x
 _atom_site_fract_y
 _atom_site_fract_z
 _atom_site_occupancy
  U  U0  1  0.165084  0.527886  0.223236  1
  U  U1  1  0.834916  0.027886  0.276764  1
  U  U2  1  0.834916  0.472114  0.776764  1
  U  U3  1  0.165084  0.972114  0.723236  1
  H  H4  1  0.155282  0.404218  0.012569  1
  H  H5  1  0.844718  0.904218  0.487431  1
  H  H6  1  0.844718  0.595782  0.987431  1
  H  H7  1  0.155282  0.095782  0.512569  1
  H  H8  1  0.268874  0.345907  0.115470  1
  H  H9  1  0.731126  0.845907  0.384530  1
  H  H10  1  0.731126  0.654093  0.884530  1
  H  H11  1  0.268874  0.154093  0.615470  1
  H  H12  1  0.129270  0.692313  0.030136  1
  H  H13  1  0.870730  0.192313  0.469864  1
  H  H14  1  0.870730  0.307687  0.969864  1
  H  H15  1  0.129270  0.807687  0.530136  1
  H  H16  1  0.154706  0.767044  0.943947  1
  H  H17  1  0.845294  0.267044  0.556053  1
  H  H18  1  0.845294  0.232956  0.056053  1
  H  H19  1  0.154706  0.732956  0.443947  1
  H  H20  1  0.937859  0.816412  0.237816  1
  H  H21  1  0.062141  0.316412  0.262184  1
  H  H22  1  0.062141  0.183588  0.762184  1
  H  H23  1  0.937859  0.683588  0.737816  1
  H  H24  1  0.885332  0.797434  0.098309  1
  H  H25  1  0.114668  0.297434  0.401691  1
  H  H26  1  0.114668  0.202566  0.901691  1
  H  H27  1  0.885332  0.702566  0.598309  1
  H  H28  1  0.411503  0.841963  0.943589  1
  H  H29  1  0.588497  0.341963  0.556411  1
  H  H30  1  0.588497  0.158037  0.056411  1
  H  H31  1  0.411503  0.658037  0.443589  1
  H  H32  1  0.246541  0.914575  0.319069  1
  H  H33  1  0.753459  0.414575  0.180931  1
  H  H34  1  0.753459  0.085425  0.680931  1
  H  H35  1  0.246541  0.585425  0.819069  1
  H  H36  1  0.430622  0.958599  0.381383  1
  H  H37  1  0.569378  0.458599  0.118617  1
  H  H38  1  0.569378  0.041401  0.618617  1
  H  H39  1  0.430622  0.541401  0.881383  1
  H  H40  1  0.429527  0.857461  0.315416  1
  H  H41  1  0.570473  0.357461  0.184584  1
  H  H42  1  0.570473  0.142539  0.684584  1
  H  H43  1  0.429527  0.642539  0.815416  1
  H  H44  1  0.777511  0.746601  0.188906  1
  H  H45  1  0.222489  0.246601  0.311094  1
  H  H46  1  0.222489  0.253399  0.811094  1
  H  H47  1  0.777511  0.753399  0.688906  1
  H  H48  1  0.975044  0.713599  0.178188  1
  H  H49  1  0.024956  0.213599  0.321812  1
  H  H50  1  0.024956  0.286401  0.821812  1
  H  H51  1  0.975044  0.786401  0.678188  1
  H  H52  1  0.440896  0.913311  0.052707  1
  H  H53  1  0.559104  0.413311  0.447293  1
  H  H54  1  0.559104  0.086689  0.947293  1
  H  H55  1  0.440896  0.586689  0.552707  1
  H  H56  1  0.603514  0.888093  0.980013  1
  H  H57  1  0.396486  0.388093  0.519987  1
  H  H58  1  0.396486  0.111907  0.019987  1
  H  H59  1  0.603514  0.611907  0.480013  1
  H  H60  1  0.527567  0.809671  0.062008  1
  H  H61  1  0.472433  0.309671  0.437992  1
  H  H62  1  0.472433  0.190329  0.937992  1
  H  H63  1  0.527567  0.690329  0.562008  1
  H  H64  1  0.342453  0.864383  0.433438  1
  H  H65  1  0.657547  0.364383  0.066562  1
  H  H66  1  0.657547  0.135617  0.566562  1
  H  H67  1  0.342453  0.635617  0.933438  1
  C  C68  1  0.452896  0.694706  0.228048  1
  C  C69  1  0.547104  0.194706  0.271952  1
  C  C70  1  0.547104  0.305294  0.771952  1
  C  C71  1  0.452896  0.805294  0.728048  1
  C  C72  1  0.908578  0.613552  0.397068  1
  C  C73  1  0.091422  0.113552  0.102932  1
  C  C74  1  0.091422  0.386448  0.602932  1
  C  C75  1  0.908578  0.886448  0.897068  1
  C  C76  1  0.822659  0.522709  0.359177  1
  C  C77  1  0.177341  0.022709  0.140823  1
  C  C78  1  0.177341  0.477291  0.640823  1
  C  C79  1  0.822659  0.977291  0.859177  1
  C  C80  1  0.501260  0.629927  0.137543  1
  C  C81  1  0.498740  0.129927  0.362457  1
  C  C82  1  0.498740  0.370073  0.862457  1
  C  C83  1  0.501260  0.870073  0.637543  1
  N  N84  1  0.191886  0.400733  0.096820  1
  N  N85  1  0.808114  0.900733  0.403180  1
  N  N86  1  0.808114  0.599267  0.903180  1
  N  N87  1  0.191886  0.099267  0.596820  1
  N  N88  1  0.896327  0.768900  0.176679  1
  N  N89  1  0.103673  0.268900  0.323321  1
  N  N90  1  0.103673  0.231100  0.823321  1
  N  N91  1  0.896327  0.731100  0.676679  1
  N  N92  1  0.495801  0.863151  0.009605  1
  N  N93  1  0.504199  0.363151  0.490395  1
  N  N94  1  0.504199  0.136849  0.990395  1
  N  N95  1  0.495801  0.636849  0.509605  1
  N  N96  1  0.362660  0.899396  0.363061  1
  N  N97  1  0.637340  0.399396  0.136939  1
  N  N98  1  0.637340  0.100604  0.636939  1
  N  N99  1  0.362660  0.600604  0.863061  1
  O  O100  1  0.331330  0.668489  0.278712  1
  O  O101  1  0.668670  0.168489  0.221288  1
  O  O102  1  0.668670  0.331511  0.721288  1
  O  O103  1  0.331330  0.831511  0.778712  1
  O  O104  1  0.048630  0.629398  0.359535  1
  O  O105  1  0.951370  0.129398  0.140465  1
  O  O106  1  0.951370  0.370602  0.640465  1
  O  O107  1  0.048630  0.870602  0.859535  1
  O  O108  1  0.414609  0.556454  0.125807  1
  O  O109  1  0.585391  0.056454  0.374193  1
  O  O110  1  0.585391  0.443546  0.874193  1
  O  O111  1  0.414609  0.943546  0.625807  1
  O  O112  1  0.049673  0.395734  0.152604  1
  O  O113  1  0.950327  0.895734  0.347396  1
  O  O114  1  0.950327  0.604266  0.847396  1
  O  O115  1  0.049673  0.104266  0.652604  1
  O  O116  1  0.905104  0.474522  0.296524  1
  O  O117  1  0.094896  0.974522  0.203476  1
  O  O118  1  0.094896  0.525478  0.703476  1
  O  O119  1  0.905104  0.025478  0.796524  1
  O  O120  1  0.293920  0.465428  0.331544  1
  O  O121  1  0.706080  0.965428  0.168456  1
  O  O122  1  0.706080  0.534572  0.668456  1
  O  O123  1  0.293920  0.034572  0.831544  1
  O  O124  1  0.036471  0.595968  0.115818  1
  O  O125  1  0.963529  0.095968  0.384182  1
  O  O126  1  0.963529  0.404032  0.884182  1
  O  O127  1  0.036471  0.904032  0.615818  1
  O  O128  1  0.536094  0.766898  0.245894  1
  O  O129  1  0.463906  0.266898  0.254106  1
  O  O130  1  0.463906  0.233102  0.754106  1
  O  O131  1  0.536094  0.733102  0.745894  1
  O  O132  1  0.837403  0.664718  0.458658  1
  O  O133  1  0.162597  0.164718  0.041342  1
  O  O134  1  0.162597  0.335282  0.541342  1
  O  O135  1  0.837403  0.835282  0.958658  1
  O  O136  1  0.683547  0.503850  0.389348  1
  O  O137  1  0.316453  0.003850  0.110652  1
  O  O138  1  0.316453  0.496150  0.610652  1
  O  O139  1  0.683547  0.996150  0.889348  1
  O  O140  1  0.617827  0.652028  0.083799  1
  O  O141  1  0.382173  0.152028  0.416201  1
  O  O142  1  0.382173  0.347972  0.916201  1
  O  O143  1  0.617827  0.847972  0.583799  1
  O  O144  1  0.216591  0.728343  0.001304  1
  O  O145  1  0.783409  0.228343  0.498696  1
  O  O146  1  0.783409  0.271657  0.998696  1
  O  O147  1  0.216591  0.771657  0.501304  1
