# generated using pymatgen
data_Li2CrSiO4
_symmetry_space_group_name_H-M   'P 1'
_cell_length_a   5.22720994
_cell_length_b   11.31630012
_cell_length_c   7.83717224
_cell_angle_alpha   90.00000000
_cell_angle_beta   128.77694558
_cell_angle_gamma   90.00000000
_symmetry_Int_Tables_number   1
_chemical_formula_structural   Li2CrSiO4
_chemical_formula_sum   'Li8 Cr4 Si4 O16'
_cell_volume   361.40991986
_cell_formula_units_Z   4
loop_
 _symmetry_equiv_pos_site_id
 _symmetry_equiv_pos_as_xyz
  1  'x, y, z'
loop_
 _atom_site_type_symbol
 _atom_site_label
 _atom_site_symmetry_multiplicity
 _atom_site_fract_x
 _atom_site_fract_y
 _atom_site_fract_z
 _atom_site_occupancy
  Li  Li0  1  0.815113  0.157518  0.001074  1
  Li  Li1  1  0.040194  0.932355  0.246913  1
  Li  Li2  1  0.959806  0.432355  0.253087  1
  Li  Li3  1  0.184887  0.657518  0.498926  1
  Li  Li4  1  0.815113  0.342482  0.501074  1
  Li  Li5  1  0.040194  0.567645  0.746913  1
  Li  Li6  1  0.959806  0.067645  0.753087  1
  Li  Li7  1  0.184887  0.842482  0.998926  1
  Cr  Cr8  1  0.317861  0.331045  0.007938  1
  Cr  Cr9  1  0.682139  0.831045  0.492062  1
  Cr  Cr10  1  0.317861  0.168955  0.507938  1
  Cr  Cr11  1  0.682139  0.668955  0.992062  1
  Si  Si12  1  0.442257  0.592091  0.247837  1
  Si  Si13  1  0.557743  0.092091  0.252163  1
  Si  Si14  1  0.442257  0.907909  0.747837  1
  Si  Si15  1  0.557743  0.407909  0.752163  1
  O  O16  1  0.317181  0.670741  0.027253  1
  O  O17  1  0.233974  0.155823  0.026988  1
  O  O18  1  0.438321  0.958902  0.260603  1
  O  O19  1  0.129970  0.586510  0.249409  1
  O  O20  1  0.870030  0.086510  0.250591  1
  O  O21  1  0.561679  0.458902  0.239397  1
  O  O22  1  0.766026  0.655823  0.473012  1
  O  O23  1  0.682819  0.170741  0.472747  1
  O  O24  1  0.317181  0.829259  0.527253  1
  O  O25  1  0.233974  0.344177  0.526988  1
  O  O26  1  0.438321  0.541098  0.760603  1
  O  O27  1  0.129970  0.913490  0.749409  1
  O  O28  1  0.870030  0.413490  0.750591  1
  O  O29  1  0.561679  0.041098  0.739397  1
  O  O30  1  0.766026  0.844177  0.973012  1
  O  O31  1  0.682819  0.329259  0.972747  1
