# generated using pymatgen
data_KLiMnP3HO10
_symmetry_space_group_name_H-M   'P 1'
_cell_length_a   7.36761534
_cell_length_b   7.44306178
_cell_length_c   9.56962688
_cell_angle_alpha   70.51963331
_cell_angle_beta   72.82439641
_cell_angle_gamma   72.71961927
_symmetry_Int_Tables_number   1
_chemical_formula_structural   KLiMnP3HO10
_chemical_formula_sum   'K2 Li2 Mn2 P6 H2 O20'
_cell_volume   461.04261763
_cell_formula_units_Z   2
loop_
 _symmetry_equiv_pos_site_id
 _symmetry_equiv_pos_as_xyz
  1  'x, y, z'
loop_
 _atom_site_type_symbol
 _atom_site_label
 _atom_site_symmetry_multiplicity
 _atom_site_fract_x
 _atom_site_fract_y
 _atom_site_fract_z
 _atom_site_occupancy
  K  K0  1  0.426028  0.549290  0.193367  1
  K  K1  1  0.586218  0.437246  0.789769  1
  Li  Li2  1  0.354804  0.767003  0.483643  1
  Li  Li3  1  0.998412  0.122984  0.510964  1
  Mn  Mn4  1  0.006020  0.491515  0.003602  1
  Mn  Mn5  1  0.503509  0.035854  0.504695  1
  P  P6  1  0.248572  0.103373  0.221818  1
  P  P7  1  0.167795  0.304639  0.691197  1
  P  P8  1  0.164718  0.880908  0.799788  1
  P  P9  1  0.839768  0.119666  0.198210  1
  P  P10  1  0.812237  0.700164  0.306617  1
  P  P11  1  0.751784  0.883923  0.788431  1
  H  H12  1  0.985583  0.517198  0.481633  1
  H  H13  1  0.526204  0.992071  0.981335  1
  O  O14  1  0.014847  0.083039  0.279142  1
  O  O15  1  0.996443  0.628381  0.380946  1
  O  O16  1  0.245427  0.314453  0.129526  1
  O  O17  1  0.177128  0.082270  0.814768  1
  O  O18  1  0.274001  0.052927  0.387449  1
  O  O19  1  0.158228  0.436193  0.785434  1
  O  O20  1  0.357420  0.293055  0.569729  1
  O  O21  1  0.150526  0.730098  0.949568  1
  O  O22  1  0.372464  0.948835  0.141220  1
  O  O23  1  0.655613  0.187989  0.305888  1
  O  O24  1  0.329384  0.824184  0.671224  1
  O  O25  1  0.616997  0.037571  0.877682  1
  O  O26  1  0.871362  0.253780  0.041102  1
  O  O27  1  0.626450  0.736549  0.426688  1
  O  O28  1  0.813304  0.573705  0.211892  1
  O  O29  1  0.716206  0.939561  0.630327  1
  O  O30  1  0.848567  0.907279  0.186814  1
  O  O31  1  0.757978  0.677533  0.886039  1
  O  O32  1  0.989406  0.340904  0.622889  1
  O  O33  1  0.967824  0.938266  0.737216  1
