# generated using pymatgen
data_Bi5O7F
_symmetry_space_group_name_H-M   'P 1'
_cell_length_a   14.66020823
_cell_length_b   14.66020823
_cell_length_c   14.66020823
_cell_angle_alpha   159.26645512
_cell_angle_beta   113.79125706
_cell_angle_gamma   70.20580467
_symmetry_Int_Tables_number   1
_chemical_formula_structural   Bi5O7F
_chemical_formula_sum   'Bi20 O28 F4'
_cell_volume   1013.37698041
_cell_formula_units_Z   4
loop_
 _symmetry_equiv_pos_site_id
 _symmetry_equiv_pos_as_xyz
  1  'x, y, z'
loop_
 _atom_site_type_symbol
 _atom_site_label
 _atom_site_symmetry_multiplicity
 _atom_site_fract_x
 _atom_site_fract_y
 _atom_site_fract_z
 _atom_site_occupancy
  Bi  Bi0  1  0.772492  0.203542  0.090908  1
  Bi  Bi1  1  0.887366  0.818416  0.590908  1
  Bi  Bi2  1  0.612634  0.703542  0.431050  1
  Bi  Bi3  1  0.727508  0.318416  0.931050  1
  Bi  Bi4  1  0.484252  0.031732  0.888813  1
  Bi  Bi5  1  0.357081  0.468268  0.452520  1
  Bi  Bi6  1  0.984252  0.595439  0.952520  1
  Bi  Bi7  1  0.857081  0.904561  0.388813  1
  Bi  Bi8  1  0.551419  0.801419  0.250000  1
  Bi  Bi9  1  0.948581  0.698581  0.750000  1
  Bi  Bi10  1  0.051419  0.301419  0.250000  1
  Bi  Bi11  1  0.448581  0.198581  0.750000  1
  Bi  Bi12  1  0.142919  0.095439  0.611187  1
  Bi  Bi13  1  0.015748  0.404561  0.047480  1
  Bi  Bi14  1  0.515748  0.968268  0.111187  1
  Bi  Bi15  1  0.642919  0.531732  0.547480  1
  Bi  Bi16  1  0.272492  0.681584  0.068950  1
  Bi  Bi17  1  0.387366  0.296458  0.568950  1
  Bi  Bi18  1  0.112634  0.181584  0.409092  1
  Bi  Bi19  1  0.227508  0.796458  0.909093  1
  O  O20  1  0.916009  0.495318  0.412861  1
  O  O21  1  0.917542  0.996852  0.912861  1
  O  O22  1  0.918140  0.297058  0.016683  1
  O  O23  1  0.719625  0.598544  0.516683  1
  O  O24  1  0.601116  0.124161  0.121407  1
  O  O25  1  0.997247  0.020291  0.621407  1
  O  O26  1  0.750000  0.989023  0.739023  1
  O  O27  1  0.750000  0.489023  0.239023  1
  O  O28  1  0.502753  0.624161  0.523045  1
  O  O29  1  0.898884  0.520291  0.023045  1
  O  O30  1  0.780375  0.797058  0.378919  1
  O  O31  1  0.581860  0.098544  0.878919  1
  O  O32  1  0.582458  0.995318  0.579309  1
  O  O33  1  0.583991  0.496852  0.079309  1
  O  O34  1  0.416009  0.503148  0.920691  1
  O  O35  1  0.417542  0.004682  0.420691  1
  O  O36  1  0.219625  0.202942  0.621081  1
  O  O37  1  0.418140  0.901456  0.121081  1
  O  O38  1  0.101116  0.479709  0.976955  1
  O  O39  1  0.497247  0.375839  0.476955  1
  O  O40  1  0.250000  0.510977  0.760977  1
  O  O41  1  0.250000  0.010977  0.260977  1
  O  O42  1  0.002753  0.979709  0.378593  1
  O  O43  1  0.398884  0.875839  0.878593  1
  O  O44  1  0.280375  0.401456  0.483317  1
  O  O45  1  0.081860  0.702942  0.983317  1
  O  O46  1  0.083991  0.504682  0.587139  1
  O  O47  1  0.082458  0.003148  0.087139  1
  F  F48  1  0.596941  0.346941  0.750000  1
  F  F49  1  0.403059  0.653059  0.250000  1
  F  F50  1  0.096941  0.846941  0.750000  1
  F  F51  1  0.903059  0.153059  0.250000  1
