# generated using pymatgen
data_NaLi5Mn2P2(CO7)2
_symmetry_space_group_name_H-M   'P 1'
_cell_length_a   6.63730322
_cell_length_b   8.64248901
_cell_length_c   10.04152947
_cell_angle_alpha   88.17531417
_cell_angle_beta   89.93779673
_cell_angle_gamma   89.63093126
_symmetry_Int_Tables_number   1
_chemical_formula_structural   NaLi5Mn2P2(CO7)2
_chemical_formula_sum   'Na2 Li10 Mn4 P4 C4 O28'
_cell_volume   575.70620633
_cell_formula_units_Z   2
loop_
 _symmetry_equiv_pos_site_id
 _symmetry_equiv_pos_as_xyz
  1  'x, y, z'
loop_
 _atom_site_type_symbol
 _atom_site_label
 _atom_site_symmetry_multiplicity
 _atom_site_fract_x
 _atom_site_fract_y
 _atom_site_fract_z
 _atom_site_occupancy
  Na  Na0  1  0.749216  0.913671  0.123493  1
  Na  Na1  1  0.500263  0.248519  0.624017  1
  Li  Li2  1  0.763331  0.918349  0.627659  1
  Li  Li3  1  0.972119  0.733262  0.389130  1
  Li  Li4  1  0.528638  0.733776  0.390124  1
  Li  Li5  1  0.976280  0.731530  0.883389  1
  Li  Li6  1  0.522964  0.733637  0.882614  1
  Li  Li7  1  0.472432  0.268401  0.114700  1
  Li  Li8  1  0.029351  0.269737  0.113774  1
  Li  Li9  1  0.020836  0.266934  0.614447  1
  Li  Li10  1  0.243226  0.083807  0.370356  1
  Li  Li11  1  0.237338  0.086598  0.872635  1
  Mn  Mn12  1  0.248920  0.647786  0.113281  1
  Mn  Mn13  1  0.250338  0.646193  0.610944  1
  Mn  Mn14  1  0.755274  0.351257  0.383301  1
  Mn  Mn15  1  0.751845  0.354311  0.888670  1
  P  P16  1  0.749096  0.584747  0.144227  1
  P  P17  1  0.754903  0.594538  0.643551  1
  P  P18  1  0.250918  0.408044  0.351583  1
  P  P19  1  0.245809  0.411700  0.854542  1
  C  C20  1  0.249502  0.962163  0.135795  1
  C  C21  1  0.240758  0.957111  0.638940  1
  C  C22  1  0.750834  0.038449  0.371365  1
  C  C23  1  0.752721  0.047098  0.860756  1
  O  O24  1  0.749114  0.889834  0.353863  1
  O  O25  1  0.750800  0.897445  0.845874  1
  O  O26  1  0.247044  0.920012  0.012879  1
  O  O27  1  0.248176  0.920205  0.515022  1
  O  O28  1  0.248552  0.857904  0.232629  1
  O  O29  1  0.254551  0.849935  0.733545  1
  O  O30  1  0.933523  0.675254  0.088037  1
  O  O31  1  0.563868  0.676573  0.088825  1
  O  O32  1  0.933697  0.697554  0.594712  1
  O  O33  1  0.565792  0.682869  0.590145  1
  O  O34  1  0.750653  0.584670  0.300258  1
  O  O35  1  0.246352  0.577825  0.400244  1
  O  O36  1  0.750690  0.585308  0.799884  1
  O  O37  1  0.249837  0.581083  0.902522  1
  O  O38  1  0.747750  0.412499  0.103118  1
  O  O39  1  0.244487  0.417204  0.195401  1
  O  O40  1  0.769461  0.426811  0.593813  1
  O  O41  1  0.230868  0.420171  0.699362  1
  O  O42  1  0.440082  0.315681  0.397361  1
  O  O43  1  0.071478  0.309358  0.405607  1
  O  O44  1  0.434579  0.315697  0.899306  1
  O  O45  1  0.067259  0.315832  0.913298  1
  O  O46  1  0.755672  0.134013  0.268902  1
  O  O47  1  0.758333  0.138672  0.755606  1
  O  O48  1  0.748485  0.091273  0.490905  1
  O  O49  1  0.749490  0.106918  0.976992  1
  O  O50  1  0.252627  0.107721  0.165369  1
  O  O51  1  0.219869  0.100061  0.673224  1
