# generated using pymatgen
data_LiFePO4
_symmetry_space_group_name_H-M   'P 1'
_cell_length_a   5.08921844
_cell_length_b   5.08921844
_cell_length_c   6.28731622
_cell_angle_alpha   90.00000000
_cell_angle_beta   90.00000000
_cell_angle_gamma   111.99417757
_symmetry_Int_Tables_number   1
_chemical_formula_structural   LiFePO4
_chemical_formula_sum   'Li2 Fe2 P2 O8'
_cell_volume   150.99104027
_cell_formula_units_Z   2
loop_
 _symmetry_equiv_pos_site_id
 _symmetry_equiv_pos_as_xyz
  1  'x, y, z'
loop_
 _atom_site_type_symbol
 _atom_site_label
 _atom_site_symmetry_multiplicity
 _atom_site_fract_x
 _atom_site_fract_y
 _atom_site_fract_z
 _atom_site_occupancy
  Li  Li0  1  0.500000  0.500000  1.000000  1
  Li  Li1  1  0.500000  0.500000  0.500000  1
  Fe  Fe2  1  0.820388  0.179612  0.250000  1
  Fe  Fe3  1  0.179612  0.820388  0.750000  1
  P  P4  1  0.855354  0.144646  0.750000  1
  P  P5  1  0.144646  0.855354  0.250000  1
  O  O6  1  0.252725  0.186892  0.250000  1
  O  O7  1  0.186892  0.252725  0.750000  1
  O  O8  1  0.746647  0.253352  0.551463  1
  O  O9  1  0.746647  0.253352  0.948537  1
  O  O10  1  0.253352  0.746648  0.051463  1
  O  O11  1  0.253352  0.746648  0.448537  1
  O  O12  1  0.813108  0.747275  0.250000  1
  O  O13  1  0.747275  0.813108  0.750000  1
