# generated using pymatgen
data_MnFe3Co2(PO4)6
_symmetry_space_group_name_H-M   'P 1'
_cell_length_a   8.41791684
_cell_length_b   8.41791684
_cell_length_c   8.41791684
_cell_angle_alpha   61.59805407
_cell_angle_beta   61.59805407
_cell_angle_gamma   61.59805407
_symmetry_Int_Tables_number   1
_chemical_formula_structural   MnFe3Co2(PO4)6
_chemical_formula_sum   'Mn1 Fe3 Co2 P6 O24'
_cell_volume   436.91274478
_cell_formula_units_Z   1
loop_
 _symmetry_equiv_pos_site_id
 _symmetry_equiv_pos_as_xyz
  1  'x, y, z'
loop_
 _atom_site_type_symbol
 _atom_site_label
 _atom_site_symmetry_multiplicity
 _atom_site_fract_x
 _atom_site_fract_y
 _atom_site_fract_z
 _atom_site_occupancy
  Mn  Mn0  1  0.141219  0.141219  0.141219  1
  Fe  Fe1  1  0.645321  0.645321  0.645321  1
  Fe  Fe2  1  0.856090  0.856090  0.856090  1
  Fe  Fe3  1  0.355741  0.355741  0.355741  1
  Co  Co4  1  0.998187  0.998187  0.998187  1
  Co  Co5  1  0.500462  0.500462  0.500462  1
  P  P6  1  0.955999  0.251310  0.539377  1
  P  P7  1  0.539377  0.955999  0.251310  1
  P  P8  1  0.251310  0.539377  0.955999  1
  P  P9  1  0.752889  0.454018  0.048327  1
  P  P10  1  0.454018  0.048327  0.752889  1
  P  P11  1  0.048327  0.752889  0.454018  1
  O  O12  1  0.498137  0.108739  0.325527  1
  O  O13  1  0.325527  0.498137  0.108739  1
  O  O14  1  0.108739  0.325527  0.498137  1
  O  O15  1  0.943176  0.093440  0.740273  1
  O  O16  1  0.997958  0.183678  0.378397  1
  O  O17  1  0.753758  0.407002  0.554913  1
  O  O18  1  0.740273  0.943176  0.093440  1
  O  O19  1  0.554913  0.753758  0.407002  1
  O  O20  1  0.823919  0.609284  0.006378  1
  O  O21  1  0.407002  0.554913  0.753758  1
  O  O22  1  0.914627  0.251038  0.061514  1
  O  O23  1  0.609284  0.006378  0.823919  1
  O  O24  1  0.378397  0.997958  0.183678  1
  O  O25  1  0.093440  0.740273  0.943176  1
  O  O26  1  0.597027  0.435629  0.249121  1
  O  O27  1  0.183678  0.378397  0.997958  1
  O  O28  1  0.435629  0.249121  0.597027  1
  O  O29  1  0.251038  0.061514  0.914627  1
  O  O30  1  0.249121  0.597027  0.435629  1
  O  O31  1  0.006378  0.823919  0.609284  1
  O  O32  1  0.061514  0.914627  0.251038  1
  O  O33  1  0.890408  0.687365  0.489762  1
  O  O34  1  0.687365  0.489762  0.890408  1
  O  O35  1  0.489762  0.890408  0.687365  1
