# generated using pymatgen
data_Li4HfO4
_symmetry_space_group_name_H-M   'P 1'
_cell_length_a   5.57089466
_cell_length_b   5.57089466
_cell_length_c   6.39634569
_cell_angle_alpha   90.00000000
_cell_angle_beta   90.00000000
_cell_angle_gamma   95.45558543
_symmetry_Int_Tables_number   1
_chemical_formula_structural   Li4HfO4
_chemical_formula_sum   'Li8 Hf2 O8'
_cell_volume   197.61052948
_cell_formula_units_Z   2
loop_
 _symmetry_equiv_pos_site_id
 _symmetry_equiv_pos_as_xyz
  1  'x, y, z'
loop_
 _atom_site_type_symbol
 _atom_site_label
 _atom_site_symmetry_multiplicity
 _atom_site_fract_x
 _atom_site_fract_y
 _atom_site_fract_z
 _atom_site_occupancy
  Li  Li0  1  0.843478  0.156522  0.500000  1
  Li  Li1  1  0.843478  0.156522  1.000000  1
  Li  Li2  1  0.879924  0.597137  0.250000  1
  Li  Li3  1  0.402863  0.120076  0.750000  1
  Li  Li4  1  0.597137  0.879924  0.250000  1
  Li  Li5  1  0.120076  0.402863  0.750000  1
  Li  Li6  1  0.156522  0.843478  0.000000  1
  Li  Li7  1  0.156522  0.843478  0.500000  1
  Hf  Hf8  1  0.345550  0.345550  0.250000  1
  Hf  Hf9  1  0.654450  0.654450  0.750000  1
  O  O10  1  0.685584  0.273981  0.250000  1
  O  O11  1  0.726019  0.314416  0.750000  1
  O  O12  1  0.202175  0.202175  0.508083  1
  O  O13  1  0.202175  0.202175  0.991917  1
  O  O14  1  0.797825  0.797825  0.491917  1
  O  O15  1  0.797825  0.797825  0.008083  1
  O  O16  1  0.314416  0.726019  0.750000  1
  O  O17  1  0.273981  0.685584  0.250000  1
