# generated using pymatgen
data_Na3CoSiBO7
_symmetry_space_group_name_H-M   'P 1'
_cell_length_a   5.19941337
_cell_length_b   6.33323438
_cell_length_c   8.97177432
_cell_angle_alpha   90.00000000
_cell_angle_beta   92.22305171
_cell_angle_gamma   90.00000000
_symmetry_Int_Tables_number   1
_chemical_formula_structural   Na3CoSiBO7
_chemical_formula_sum   'Na6 Co2 Si2 B2 O14'
_cell_volume   295.21014030
_cell_formula_units_Z   2
loop_
 _symmetry_equiv_pos_site_id
 _symmetry_equiv_pos_as_xyz
  1  'x, y, z'
loop_
 _atom_site_type_symbol
 _atom_site_label
 _atom_site_symmetry_multiplicity
 _atom_site_fract_x
 _atom_site_fract_y
 _atom_site_fract_z
 _atom_site_occupancy
  Na  Na0  1  0.236940  0.750000  0.082344  1
  Na  Na1  1  0.748134  0.991580  0.262480  1
  Na  Na2  1  0.748134  0.508420  0.262480  1
  Na  Na3  1  0.251866  0.491580  0.737520  1
  Na  Na4  1  0.251866  0.008420  0.737520  1
  Na  Na5  1  0.763060  0.250000  0.917656  1
  Co  Co6  1  0.213262  0.250000  0.331536  1
  Co  Co7  1  0.786738  0.750000  0.668464  1
  Si  Si8  1  0.286135  0.750000  0.431285  1
  Si  Si9  1  0.713865  0.250000  0.568715  1
  B  B10  1  0.267752  0.250000  0.069024  1
  B  B11  1  0.732248  0.750000  0.930976  1
  O  O12  1  0.701149  0.750000  0.077933  1
  O  O13  1  0.032513  0.250000  0.138384  1
  O  O14  1  0.464699  0.250000  0.179685  1
  O  O15  1  0.220381  0.949907  0.315905  1
  O  O16  1  0.220381  0.550093  0.315905  1
  O  O17  1  0.596004  0.750000  0.477481  1
  O  O18  1  0.888280  0.250000  0.423094  1
  O  O19  1  0.111720  0.750000  0.576906  1
  O  O20  1  0.403996  0.250000  0.522519  1
  O  O21  1  0.779619  0.449907  0.684095  1
  O  O22  1  0.779619  0.050093  0.684095  1
  O  O23  1  0.535301  0.750000  0.820315  1
  O  O24  1  0.967487  0.750000  0.861616  1
  O  O25  1  0.298851  0.250000  0.922067  1
