# generated using pymatgen
data_Fe4O7F
_symmetry_space_group_name_H-M   'P 1'
_cell_length_a   7.56180423
_cell_length_b   7.56180423
_cell_length_c   6.65326968
_cell_angle_alpha   64.17513136
_cell_angle_beta   115.82486864
_cell_angle_gamma   129.68442254
_symmetry_Int_Tables_number   1
_chemical_formula_structural   Fe4O7F
_chemical_formula_sum   'Fe8 O14 F2'
_cell_volume   256.63876137
_cell_formula_units_Z   2
loop_
 _symmetry_equiv_pos_site_id
 _symmetry_equiv_pos_as_xyz
  1  'x, y, z'
loop_
 _atom_site_type_symbol
 _atom_site_label
 _atom_site_symmetry_multiplicity
 _atom_site_fract_x
 _atom_site_fract_y
 _atom_site_fract_z
 _atom_site_occupancy
  Fe  Fe0  1  0.256170  0.743830  0.263259  1
  Fe  Fe1  1  0.743830  0.256170  0.736741  1
  Fe  Fe2  1  0.500000  0.500000  0.500000  1
  Fe  Fe3  1  0.624290  0.375710  0.122416  1
  Fe  Fe4  1  0.125228  0.874772  0.600693  1
  Fe  Fe5  1  0.375710  0.624290  0.877584  1
  Fe  Fe6  1  0.874772  0.125228  0.399307  1
  Fe  Fe7  1  0.000000  0.000000  0.000000  1
  O  O8  1  0.558049  0.056927  0.254075  1
  O  O9  1  0.441951  0.943073  0.745925  1
  O  O10  1  0.943073  0.441951  0.254075  1
  O  O11  1  0.622248  0.377752  0.811501  1
  O  O12  1  0.617731  0.382269  0.423203  1
  O  O13  1  0.377752  0.622248  0.188499  1
  O  O14  1  0.302734  0.302734  0.000000  1
  O  O15  1  0.812341  0.812341  0.500000  1
  O  O16  1  0.056927  0.558049  0.745925  1
  O  O17  1  0.697266  0.697266  0.000000  1
  O  O18  1  0.187659  0.187659  0.500000  1
  O  O19  1  0.382269  0.617731  0.576797  1
  O  O20  1  0.125087  0.874913  0.304643  1
  O  O21  1  0.874913  0.125087  0.695357  1
  F  F22  1  0.128168  0.871832  0.924229  1
  F  F23  1  0.871832  0.128168  0.075771  1
