# generated using pymatgen
data_HfCrO3
_symmetry_space_group_name_H-M   'P 1'
_cell_length_a   4.90680388
_cell_length_b   5.32920548
_cell_length_c   9.36186262
_cell_angle_alpha   90.00000000
_cell_angle_beta   90.00000000
_cell_angle_gamma   90.00000000
_symmetry_Int_Tables_number   1
_chemical_formula_structural   HfCrO3
_chemical_formula_sum   'Hf4 Cr4 O12'
_cell_volume   244.80677328
_cell_formula_units_Z   4
loop_
 _symmetry_equiv_pos_site_id
 _symmetry_equiv_pos_as_xyz
  1  'x, y, z'
loop_
 _atom_site_type_symbol
 _atom_site_label
 _atom_site_symmetry_multiplicity
 _atom_site_fract_x
 _atom_site_fract_y
 _atom_site_fract_z
 _atom_site_occupancy
  Hf  Hf0  1  0.048297  0.956413  0.750000  1
  Hf  Hf1  1  0.451703  0.456413  0.750000  1
  Hf  Hf2  1  0.548297  0.543587  0.250000  1
  Hf  Hf3  1  0.951703  0.043587  0.250000  1
  Cr  Cr4  1  0.000000  0.500000  0.000000  1
  Cr  Cr5  1  0.000000  0.500000  0.500000  1
  Cr  Cr6  1  0.500000  0.000000  0.000000  1
  Cr  Cr7  1  0.500000  0.000000  0.500000  1
  O  O8  1  0.193678  0.359836  0.250000  1
  O  O9  1  0.214019  0.221213  0.604262  1
  O  O10  1  0.214019  0.221213  0.895738  1
  O  O11  1  0.285981  0.721213  0.604262  1
  O  O12  1  0.285981  0.721213  0.895738  1
  O  O13  1  0.306322  0.859836  0.250000  1
  O  O14  1  0.693678  0.140164  0.750000  1
  O  O15  1  0.714019  0.278787  0.104262  1
  O  O16  1  0.714019  0.278787  0.395738  1
  O  O17  1  0.785981  0.778787  0.104262  1
  O  O18  1  0.785981  0.778787  0.395738  1
  O  O19  1  0.806322  0.640164  0.750000  1
