# generated using pymatgen
data_LiSb(PO3)4
_symmetry_space_group_name_H-M   'P 1'
_cell_length_a   10.08406720
_cell_length_b   9.28542375
_cell_length_c   12.42771801
_cell_angle_alpha   90.00000000
_cell_angle_beta   124.40730646
_cell_angle_gamma   90.00000000
_symmetry_Int_Tables_number   1
_chemical_formula_structural   LiSb(PO3)4
_chemical_formula_sum   'Li4 Sb4 P16 O48'
_cell_volume   960.07379393
_cell_formula_units_Z   4
loop_
 _symmetry_equiv_pos_site_id
 _symmetry_equiv_pos_as_xyz
  1  'x, y, z'
loop_
 _atom_site_type_symbol
 _atom_site_label
 _atom_site_symmetry_multiplicity
 _atom_site_fract_x
 _atom_site_fract_y
 _atom_site_fract_z
 _atom_site_occupancy
  Li  Li0  1  0.241288  0.819432  0.018013  1
  Li  Li1  1  0.758712  0.319432  0.481987  1
  Li  Li2  1  0.241288  0.680568  0.518013  1
  Li  Li3  1  0.758712  0.180568  0.981987  1
  Sb  Sb4  1  0.801150  0.592875  0.753757  1
  Sb  Sb5  1  0.801150  0.907125  0.253757  1
  Sb  Sb6  1  0.198850  0.092875  0.746243  1
  Sb  Sb7  1  0.198850  0.407125  0.246243  1
  P  P8  1  0.229132  0.182839  0.049671  1
  P  P9  1  0.709019  0.123836  0.700893  1
  P  P10  1  0.506310  0.005826  0.238729  1
  P  P11  1  0.493690  0.505826  0.261271  1
  P  P12  1  0.890674  0.883184  0.660700  1
  P  P13  1  0.109326  0.383184  0.839300  1
  P  P14  1  0.770868  0.682839  0.450329  1
  P  P15  1  0.709019  0.376164  0.200893  1
  P  P16  1  0.290981  0.623836  0.799107  1
  P  P17  1  0.229132  0.317161  0.549671  1
  P  P18  1  0.890674  0.616816  0.160700  1
  P  P19  1  0.109326  0.116816  0.339300  1
  P  P20  1  0.506310  0.494174  0.738729  1
  P  P21  1  0.493690  0.994174  0.761271  1
  P  P22  1  0.290981  0.876164  0.299107  1
  P  P23  1  0.770868  0.817161  0.950329  1
  O  O24  1  0.139812  0.260321  0.100681  1
  O  O25  1  0.207640  0.822638  0.163555  1
  O  O26  1  0.455276  0.963125  0.334023  1
  O  O27  1  0.411823  0.158494  0.173175  1
  O  O28  1  0.312341  0.537364  0.171516  1
  O  O29  1  0.668886  0.211824  0.586194  1
  O  O30  1  0.802488  0.974932  0.705651  1
  O  O31  1  0.532300  0.400370  0.366144  1
  O  O32  1  0.467700  0.900370  0.133856  1
  O  O33  1  0.744779  0.809892  0.527193  1
  O  O34  1  0.687659  0.037364  0.328484  1
  O  O35  1  0.011642  0.477857  0.872593  1
  O  O36  1  0.588177  0.658494  0.326825  1
  O  O37  1  0.155742  0.052536  0.967916  1
  O  O38  1  0.544724  0.463125  0.165977  1
  O  O39  1  0.019151  0.264384  0.741723  1
  O  O40  1  0.980849  0.764384  0.758277  1
  O  O41  1  0.844258  0.552536  0.532084  1
  O  O42  1  0.988358  0.977857  0.627407  1
  O  O43  1  0.255221  0.309892  0.972807  1
  O  O44  1  0.792360  0.322638  0.336445  1
  O  O45  1  0.860188  0.760321  0.399319  1
  O  O46  1  0.668886  0.288176  0.086194  1
  O  O47  1  0.197512  0.474932  0.794349  1
  O  O48  1  0.802488  0.525068  0.205651  1
  O  O49  1  0.331114  0.711824  0.913806  1
  O  O50  1  0.139812  0.239679  0.600681  1
  O  O51  1  0.207640  0.677362  0.663555  1
  O  O52  1  0.744779  0.690108  0.027193  1
  O  O53  1  0.011642  0.022143  0.372593  1
  O  O54  1  0.155742  0.447464  0.467916  1
  O  O55  1  0.019151  0.235616  0.241723  1
  O  O56  1  0.980849  0.735616  0.258277  1
  O  O57  1  0.455276  0.536875  0.834023  1
  O  O58  1  0.844258  0.947464  0.032084  1
  O  O59  1  0.411823  0.341506  0.673175  1
  O  O60  1  0.988358  0.522143  0.127407  1
  O  O61  1  0.312341  0.962636  0.671516  1
  O  O62  1  0.255221  0.190108  0.472807  1
  O  O63  1  0.532300  0.099630  0.866144  1
  O  O64  1  0.467700  0.599630  0.633856  1
  O  O65  1  0.197512  0.025068  0.294349  1
  O  O66  1  0.331114  0.788176  0.413806  1
  O  O67  1  0.687659  0.462636  0.828484  1
  O  O68  1  0.588177  0.841506  0.826825  1
  O  O69  1  0.544724  0.036875  0.665977  1
  O  O70  1  0.792360  0.177362  0.836445  1
  O  O71  1  0.860188  0.739679  0.899319  1
