# generated using pymatgen
data_LiFePO4
_symmetry_space_group_name_H-M   'P 1'
_cell_length_a   5.13599911
_cell_length_b   10.22301628
_cell_length_c   13.67166830
_cell_angle_alpha   90.00000000
_cell_angle_beta   90.00000000
_cell_angle_gamma   90.00000000
_symmetry_Int_Tables_number   1
_chemical_formula_structural   LiFePO4
_chemical_formula_sum   'Li8 Fe8 P8 O32'
_cell_volume   717.83644715
_cell_formula_units_Z   8
loop_
 _symmetry_equiv_pos_site_id
 _symmetry_equiv_pos_as_xyz
  1  'x, y, z'
loop_
 _atom_site_type_symbol
 _atom_site_label
 _atom_site_symmetry_multiplicity
 _atom_site_fract_x
 _atom_site_fract_y
 _atom_site_fract_z
 _atom_site_occupancy
  Li  Li0  1  0.054352  0.033141  0.247598  1
  Li  Li1  1  0.550080  0.214411  0.997935  1
  Li  Li2  1  0.550080  0.285589  0.497935  1
  Li  Li3  1  0.054352  0.466859  0.747598  1
  Li  Li4  1  0.945648  0.533141  0.247598  1
  Li  Li5  1  0.449920  0.714411  0.997935  1
  Li  Li6  1  0.449920  0.785589  0.497935  1
  Li  Li7  1  0.945648  0.966859  0.747598  1
  Fe  Fe8  1  0.933481  0.031003  0.498973  1
  Fe  Fe9  1  0.548051  0.219677  0.250038  1
  Fe  Fe10  1  0.548051  0.280323  0.750038  1
  Fe  Fe11  1  0.933481  0.468997  0.998973  1
  Fe  Fe12  1  0.066519  0.531003  0.498973  1
  Fe  Fe13  1  0.451949  0.719677  0.250038  1
  Fe  Fe14  1  0.451949  0.780323  0.750038  1
  Fe  Fe15  1  0.066519  0.968997  0.998973  1
  P  P16  1  0.442267  0.031425  0.623857  1
  P  P17  1  0.051080  0.217592  0.872262  1
  P  P18  1  0.051080  0.282408  0.372262  1
  P  P19  1  0.442267  0.468575  0.123857  1
  P  P20  1  0.557733  0.531425  0.623857  1
  P  P21  1  0.948920  0.717592  0.872262  1
  P  P22  1  0.948920  0.782408  0.372262  1
  P  P23  1  0.557733  0.968575  0.123857  1
  O  O24  1  0.856522  0.994831  0.123777  1
  O  O25  1  0.559880  0.969431  0.530022  1
  O  O26  1  0.436270  0.030580  0.217121  1
  O  O27  1  0.002791  0.067485  0.871344  1
  O  O28  1  0.501791  0.180512  0.623223  1
  O  O29  1  0.915754  0.225731  0.464661  1
  O  O30  1  0.939575  0.280733  0.777692  1
  O  O31  1  0.347602  0.249118  0.875896  1
  O  O32  1  0.347602  0.250882  0.375896  1
  O  O33  1  0.939575  0.219267  0.277692  1
  O  O34  1  0.915754  0.274269  0.964661  1
  O  O35  1  0.501791  0.319488  0.123223  1
  O  O36  1  0.002791  0.432515  0.371344  1
  O  O37  1  0.436270  0.469420  0.717121  1
  O  O38  1  0.559880  0.530569  0.030022  1
  O  O39  1  0.856522  0.505169  0.623777  1
  O  O40  1  0.143478  0.494831  0.123777  1
  O  O41  1  0.440120  0.469431  0.530022  1
  O  O42  1  0.563730  0.530580  0.217121  1
  O  O43  1  0.997209  0.567485  0.871344  1
  O  O44  1  0.498209  0.680512  0.623223  1
  O  O45  1  0.084246  0.725731  0.464661  1
  O  O46  1  0.060425  0.780733  0.777692  1
  O  O47  1  0.652398  0.749118  0.875896  1
  O  O48  1  0.652398  0.750882  0.375896  1
  O  O49  1  0.060425  0.719267  0.277692  1
  O  O50  1  0.084246  0.774269  0.964661  1
  O  O51  1  0.498209  0.819488  0.123223  1
  O  O52  1  0.997209  0.932515  0.371344  1
  O  O53  1  0.563730  0.969420  0.717121  1
  O  O54  1  0.440120  0.030569  0.030022  1
  O  O55  1  0.143478  0.005169  0.623777  1
