# generated using pymatgen
data_Na2VSiCO7
_symmetry_space_group_name_H-M   'P 1'
_cell_length_a   5.40347053
_cell_length_b   6.61797715
_cell_length_c   9.03815536
_cell_angle_alpha   90.00000000
_cell_angle_beta   93.03426376
_cell_angle_gamma   90.00000000
_symmetry_Int_Tables_number   1
_chemical_formula_structural   Na2VSiCO7
_chemical_formula_sum   'Na4 V2 Si2 C2 O14'
_cell_volume   322.75172342
_cell_formula_units_Z   2
loop_
 _symmetry_equiv_pos_site_id
 _symmetry_equiv_pos_as_xyz
  1  'x, y, z'
loop_
 _atom_site_type_symbol
 _atom_site_label
 _atom_site_symmetry_multiplicity
 _atom_site_fract_x
 _atom_site_fract_y
 _atom_site_fract_z
 _atom_site_occupancy
  Na  Na0  1  0.264622  0.500210  0.220432  1
  Na  Na1  1  0.264622  0.999790  0.220432  1
  Na  Na2  1  0.735378  0.499790  0.779568  1
  Na  Na3  1  0.735378  0.000210  0.779568  1
  V  V4  1  0.703566  0.250000  0.357991  1
  V  V5  1  0.296434  0.750000  0.642009  1
  Si  Si6  1  0.768377  0.750000  0.432686  1
  Si  Si7  1  0.231623  0.250000  0.567314  1
  C  C8  1  0.772506  0.250000  0.083501  1
  C  C9  1  0.227494  0.750000  0.916499  1
  O  O10  1  0.187264  0.750000  0.052002  1
  O  O11  1  0.552207  0.250000  0.137754  1
  O  O12  1  0.951736  0.250000  0.189320  1
  O  O13  1  0.696648  0.952289  0.338228  1
  O  O14  1  0.696648  0.547711  0.338228  1
  O  O15  1  0.373234  0.250000  0.408478  1
  O  O16  1  0.070689  0.750000  0.481325  1
  O  O17  1  0.929311  0.250000  0.518675  1
  O  O18  1  0.626766  0.750000  0.591522  1
  O  O19  1  0.303352  0.452289  0.661772  1
  O  O20  1  0.303352  0.047711  0.661772  1
  O  O21  1  0.048264  0.750000  0.810680  1
  O  O22  1  0.447793  0.750000  0.862246  1
  O  O23  1  0.812736  0.250000  0.947998  1
