# generated using pymatgen
data_KCuPH2O5
_symmetry_space_group_name_H-M   'P 1'
_cell_length_a   6.80910038
_cell_length_b   6.87778745
_cell_length_c   10.59877683
_cell_angle_alpha   90.00000000
_cell_angle_beta   92.79077000
_cell_angle_gamma   90.00000000
_symmetry_Int_Tables_number   1
_chemical_formula_structural   KCuPH2O5
_chemical_formula_sum   'K4 Cu4 P4 H8 O20'
_cell_volume   495.76841316
_cell_formula_units_Z   4
loop_
 _symmetry_equiv_pos_site_id
 _symmetry_equiv_pos_as_xyz
  1  'x, y, z'
loop_
 _atom_site_type_symbol
 _atom_site_label
 _atom_site_symmetry_multiplicity
 _atom_site_fract_x
 _atom_site_fract_y
 _atom_site_fract_z
 _atom_site_occupancy
  K  K0  1  0.035848  0.076080  0.315121  1
  K  K1  1  0.464152  0.576080  0.684879  1
  K  K2  1  0.964152  0.923920  0.684879  1
  K  K3  1  0.535848  0.423920  0.315121  1
  Cu  Cu4  1  0.720850  0.703640  0.992589  1
  Cu  Cu5  1  0.779150  0.203640  0.007411  1
  Cu  Cu6  1  0.279150  0.296360  0.007411  1
  Cu  Cu7  1  0.220850  0.796360  0.992589  1
  P  P8  1  0.499232  0.966016  0.176225  1
  P  P9  1  0.000768  0.466016  0.823775  1
  P  P10  1  0.500768  0.033984  0.823775  1
  P  P11  1  0.999232  0.533984  0.176225  1
  H  H12  1  0.658025  0.865242  0.420617  1
  H  H13  1  0.841975  0.365242  0.579383  1
  H  H14  1  0.341975  0.134758  0.579383  1
  H  H15  1  0.158025  0.634758  0.420617  1
  H  H16  1  0.831278  0.713697  0.409904  1
  H  H17  1  0.668722  0.213697  0.590096  1
  H  H18  1  0.168722  0.286303  0.590096  1
  H  H19  1  0.331278  0.786303  0.409904  1
  O  O20  1  0.440701  0.963576  0.313106  1
  O  O21  1  0.059299  0.463576  0.686894  1
  O  O22  1  0.559299  0.036424  0.686894  1
  O  O23  1  0.940701  0.536424  0.313106  1
  O  O24  1  0.670768  0.113704  0.163267  1
  O  O25  1  0.829232  0.613704  0.836733  1
  O  O26  1  0.329232  0.886296  0.836733  1
  O  O27  1  0.170768  0.386296  0.163267  1
  O  O28  1  0.317514  0.035674  0.085384  1
  O  O29  1  0.182486  0.535674  0.914616  1
  O  O30  1  0.682486  0.964326  0.914616  1
  O  O31  1  0.817514  0.464326  0.085384  1
  O  O32  1  0.549406  0.757271  0.129855  1
  O  O33  1  0.950594  0.257271  0.870145  1
  O  O34  1  0.450594  0.242729  0.870145  1
  O  O35  1  0.049406  0.742729  0.129855  1
  O  O36  1  0.783469  0.821982  0.461278  1
  O  O37  1  0.716531  0.321982  0.538722  1
  O  O38  1  0.216531  0.178018  0.538722  1
  O  O39  1  0.283469  0.678018  0.461278  1
