# generated using pymatgen
data_Li2AlCoO4
_symmetry_space_group_name_H-M   'P 1'
_cell_length_a   5.32663092
_cell_length_b   5.32663092
_cell_length_c   6.31241325
_cell_angle_alpha   90.00000000
_cell_angle_beta   90.00000000
_cell_angle_gamma   90.44766752
_symmetry_Int_Tables_number   1
_chemical_formula_structural   Li2AlCoO4
_chemical_formula_sum   'Li4 Al2 Co2 O8'
_cell_volume   179.09661535
_cell_formula_units_Z   2
loop_
 _symmetry_equiv_pos_site_id
 _symmetry_equiv_pos_as_xyz
  1  'x, y, z'
loop_
 _atom_site_type_symbol
 _atom_site_label
 _atom_site_symmetry_multiplicity
 _atom_site_fract_x
 _atom_site_fract_y
 _atom_site_fract_z
 _atom_site_occupancy
  Li  Li0  1  0.316945  0.316945  0.500000  1
  Li  Li1  1  0.815903  0.184097  0.750000  1
  Li  Li2  1  0.184097  0.815903  0.250000  1
  Li  Li3  1  0.683055  0.683055  1.000000  1
  Al  Al4  1  0.320842  0.320842  0.000000  1
  Al  Al5  1  0.679158  0.679158  0.500000  1
  Co  Co6  1  0.174559  0.825441  0.750000  1
  Co  Co7  1  0.825441  0.174559  0.250000  1
  O  O8  1  0.177147  0.198438  0.231638  1
  O  O9  1  0.198438  0.177147  0.768362  1
  O  O10  1  0.653415  0.292288  0.013914  1
  O  O11  1  0.292288  0.653415  0.986086  1
  O  O12  1  0.707712  0.346585  0.486086  1
  O  O13  1  0.346585  0.707712  0.513914  1
  O  O14  1  0.822853  0.801562  0.731638  1
  O  O15  1  0.801562  0.822853  0.268362  1
