# generated using pymatgen
data_K11Mn4O16
_symmetry_space_group_name_H-M   'P 1'
_cell_length_a   10.47038687
_cell_length_b   10.47038687
_cell_length_c   10.47038687
_cell_angle_alpha   135.17378056
_cell_angle_beta   135.17378056
_cell_angle_gamma   65.26030337
_symmetry_Int_Tables_number   1
_chemical_formula_structural   K11Mn4O16
_chemical_formula_sum   'K11 Mn4 O16'
_cell_volume   562.13380325
_cell_formula_units_Z   1
loop_
 _symmetry_equiv_pos_site_id
 _symmetry_equiv_pos_as_xyz
  1  'x, y, z'
loop_
 _atom_site_type_symbol
 _atom_site_label
 _atom_site_symmetry_multiplicity
 _atom_site_fract_x
 _atom_site_fract_y
 _atom_site_fract_z
 _atom_site_occupancy
  K  K0  1  0.070916  0.719120  1.000000  1
  K  K1  1  0.750000  0.250000  0.500000  1
  K  K2  1  0.500000  0.000000  0.500000  1
  K  K3  1  0.289223  0.289223  0.000000  1
  K  K4  1  0.500000  0.500000  0.000000  1
  K  K5  1  0.710777  0.710777  0.000000  1
  K  K6  1  0.929084  0.929084  0.648204  1
  K  K7  1  0.719120  0.070916  0.000000  1
  K  K8  1  0.280880  0.280880  0.351796  1
  K  K9  1  0.250000  0.750000  0.500000  1
  K  K10  1  1.000000  0.500000  0.500000  1
  Mn  Mn11  1  0.386368  0.860628  0.000000  1
  Mn  Mn12  1  0.860628  0.386368  1.000000  1
  Mn  Mn13  1  0.139372  0.139372  0.525740  1
  Mn  Mn14  1  0.613632  0.613632  0.474260  1
  O  O15  1  0.213540  0.896925  0.000000  1
  O  O16  1  0.011178  0.413442  1.000000  1
  O  O17  1  0.339309  0.641870  0.753357  1
  O  O18  1  0.111487  0.358130  0.697439  1
  O  O19  1  0.786460  0.786460  0.683386  1
  O  O20  1  0.413442  0.011178  0.000000  1
  O  O21  1  0.586558  0.586558  0.597736  1
  O  O22  1  0.414048  0.660691  0.302561  1
  O  O23  1  0.585952  0.888513  0.246643  1
  O  O24  1  0.641870  0.339309  0.753357  1
  O  O25  1  0.358130  0.111487  0.697439  1
  O  O26  1  0.988822  0.988822  0.402264  1
  O  O27  1  0.896925  0.213540  0.000000  1
  O  O28  1  0.103075  0.103075  0.316614  1
  O  O29  1  0.660691  0.414048  0.302561  1
  O  O30  1  0.888513  0.585952  0.246643  1
