# generated using pymatgen
data_LiTiFe2O5
_symmetry_space_group_name_H-M   'P 1'
_cell_length_a   5.41486914
_cell_length_b   5.45195723
_cell_length_c   7.62950003
_cell_angle_alpha   80.70153076
_cell_angle_beta   70.34496579
_cell_angle_gamma   65.37910927
_symmetry_Int_Tables_number   1
_chemical_formula_structural   LiTiFe2O5
_chemical_formula_sum   'Li2 Ti2 Fe4 O10'
_cell_volume   192.76710543
_cell_formula_units_Z   2
loop_
 _symmetry_equiv_pos_site_id
 _symmetry_equiv_pos_as_xyz
  1  'x, y, z'
loop_
 _atom_site_type_symbol
 _atom_site_label
 _atom_site_symmetry_multiplicity
 _atom_site_fract_x
 _atom_site_fract_y
 _atom_site_fract_z
 _atom_site_occupancy
  Li  Li0  1  0.004669  0.007123  0.992966  1
  Li  Li1  1  0.685349  0.494811  0.606139  1
  Ti  Ti2  1  0.753980  0.038691  0.410118  1
  Ti  Ti3  1  0.087885  0.512776  0.786714  1
  Fe  Fe4  1  0.948856  0.523761  0.208469  1
  Fe  Fe5  1  0.507322  0.491581  0.002258  1
  Fe  Fe6  1  0.197073  0.994063  0.604718  1
  Fe  Fe7  1  0.398634  0.972469  0.185841  1
  O  O8  1  0.239291  0.283588  0.004453  1
  O  O9  1  0.431854  0.233519  0.597101  1
  O  O10  1  0.008468  0.220924  0.400759  1
  O  O11  1  0.904387  0.275942  0.784983  1
  O  O12  1  0.651677  0.215960  0.200129  1
  O  O13  1  0.320472  0.711802  0.793748  1
  O  O14  1  0.770168  0.700506  0.005978  1
  O  O15  1  0.132788  0.767021  0.203274  1
  O  O16  1  0.968476  0.775336  0.604870  1
  O  O17  1  0.590442  0.775400  0.407756  1
