# generated using pymatgen
data_Li4Co2C4SO16
_symmetry_space_group_name_H-M   'P 1'
_cell_length_a   9.14550249
_cell_length_b   9.15632975
_cell_length_c   9.24263471
_cell_angle_alpha   118.92523005
_cell_angle_beta   118.89628091
_cell_angle_gamma   91.29093590
_symmetry_Int_Tables_number   1
_chemical_formula_structural   Li4Co2C4SO16
_chemical_formula_sum   'Li8 Co4 C8 S2 O32'
_cell_volume   558.93358516
_cell_formula_units_Z   2
loop_
 _symmetry_equiv_pos_site_id
 _symmetry_equiv_pos_as_xyz
  1  'x, y, z'
loop_
 _atom_site_type_symbol
 _atom_site_label
 _atom_site_symmetry_multiplicity
 _atom_site_fract_x
 _atom_site_fract_y
 _atom_site_fract_z
 _atom_site_occupancy
  Li  Li0  1  0.333961  0.664462  0.748414  1
  Li  Li1  1  0.677627  0.915226  0.248636  1
  Li  Li2  1  0.918840  0.673024  0.762488  1
  Li  Li3  1  0.329400  0.083416  0.175297  1
  Li  Li4  1  0.074020  0.337219  0.254751  1
  Li  Li5  1  0.914060  0.085127  0.748660  1
  Li  Li6  1  0.322651  0.077908  0.730463  1
  Li  Li7  1  0.680091  0.339587  0.254635  1
  Co  Co8  1  0.500672  0.998043  0.498670  1
  Co  Co9  1  0.500282  0.498766  0.997928  1
  Co  Co10  1  0.999473  0.499151  0.998479  1
  Co  Co11  1  0.498994  0.499480  0.499685  1
  C  C12  1  0.354519  0.283573  0.572354  1
  C  C13  1  0.716021  0.643448  0.924208  1
  C  C14  1  0.710077  0.276547  0.925385  1
  C  C15  1  0.721308  0.286952  0.570656  1
  C  C16  1  0.286929  0.718090  0.067957  1
  C  C17  1  0.280744  0.710065  0.425971  1
  C  C18  1  0.645807  0.714538  0.424010  1
  C  C19  1  0.283141  0.349302  0.070903  1
  S  S20  1  0.129462  0.880958  0.760907  1
  S  S21  1  0.872417  0.129955  0.252119  1
  O  O22  1  0.415604  0.869749  0.213580  1
  O  O23  1  0.343366  0.413521  0.548843  1
  O  O24  1  0.586066  0.655053  0.949070  1
  O  O25  1  0.638429  0.698097  0.274161  1
  O  O26  1  0.698890  0.642897  0.776692  1
  O  O27  1  0.068799  0.957065  0.640589  1
  O  O28  1  0.060296  0.942948  0.890914  1
  O  O29  1  0.856443  0.637735  0.049877  1
  O  O30  1  0.358866  0.141709  0.443634  1
  O  O31  1  0.693465  0.401780  0.057932  1
  O  O32  1  0.593214  0.301266  0.435770  1
  O  O33  1  0.069202  0.684729  0.640227  1
  O  O34  1  0.327874  0.948454  0.891115  1
  O  O35  1  0.136680  0.700396  0.046846  1
  O  O36  1  0.298568  0.862355  0.451255  1
  O  O37  1  0.862376  0.420024  0.719614  1
  O  O38  1  0.138548  0.576465  0.274942  1
  O  O39  1  0.862982  0.293397  0.948407  1
  O  O40  1  0.705779  0.134904  0.548694  1
  O  O41  1  0.672880  0.068365  0.129790  1
  O  O42  1  0.932055  0.329937  0.372838  1
  O  O43  1  0.404946  0.692298  0.559898  1
  O  O44  1  0.306914  0.592204  0.939932  1
  O  O45  1  0.653198  0.862910  0.557738  1
  O  O46  1  0.137870  0.348796  0.942838  1
  O  O47  1  0.945333  0.076660  0.129077  1
  O  O48  1  0.927643  0.059625  0.377491  1
  O  O49  1  0.298896  0.341983  0.215293  1
  O  O50  1  0.357829  0.298348  0.719247  1
  O  O51  1  0.414963  0.347113  0.052589  1
  O  O52  1  0.653239  0.584820  0.446845  1
  O  O53  1  0.578287  0.133106  0.775232  1
