# generated using pymatgen
data_LiFeF5
_symmetry_space_group_name_H-M   'P 1'
_cell_length_a   5.21425342
_cell_length_b   5.21425342
_cell_length_c   7.71948966
_cell_angle_alpha   67.75763179
_cell_angle_beta   112.24236821
_cell_angle_gamma   108.79065207
_symmetry_Int_Tables_number   1
_chemical_formula_structural   LiFeF5
_chemical_formula_sum   'Li2 Fe2 F10'
_cell_volume   175.84793557
_cell_formula_units_Z   2
loop_
 _symmetry_equiv_pos_site_id
 _symmetry_equiv_pos_as_xyz
  1  'x, y, z'
loop_
 _atom_site_type_symbol
 _atom_site_label
 _atom_site_symmetry_multiplicity
 _atom_site_fract_x
 _atom_site_fract_y
 _atom_site_fract_z
 _atom_site_occupancy
  Li  Li0  1  0.502096  0.502096  0.750000  1
  Li  Li1  1  0.497904  0.497904  0.250000  1
  Fe  Fe2  1  0.000000  0.000000  0.500000  1
  Fe  Fe3  1  0.000000  0.000000  0.000000  1
  F  F4  1  0.264541  0.787245  0.626641  1
  F  F5  1  0.309192  0.269899  0.956918  1
  F  F6  1  0.212755  0.735459  0.126641  1
  F  F7  1  0.904206  0.904206  0.750000  1
  F  F8  1  0.269899  0.309192  0.543082  1
  F  F9  1  0.730101  0.690808  0.456918  1
  F  F10  1  0.095794  0.095794  0.250000  1
  F  F11  1  0.787245  0.264541  0.873359  1
  F  F12  1  0.690808  0.730101  0.043082  1
  F  F13  1  0.735459  0.212755  0.373359  1
