# generated using pymatgen
data_LiMn(PO3)3
_symmetry_space_group_name_H-M   'P 1'
_cell_length_a   7.40549116
_cell_length_b   9.19779311
_cell_length_c   12.10407152
_cell_angle_alpha   90.00000000
_cell_angle_beta   90.00000000
_cell_angle_gamma   90.00000000
_symmetry_Int_Tables_number   1
_chemical_formula_structural   LiMn(PO3)3
_chemical_formula_sum   'Li4 Mn4 P12 O36'
_cell_volume   824.45885260
_cell_formula_units_Z   4
loop_
 _symmetry_equiv_pos_site_id
 _symmetry_equiv_pos_as_xyz
  1  'x, y, z'
loop_
 _atom_site_type_symbol
 _atom_site_label
 _atom_site_symmetry_multiplicity
 _atom_site_fract_x
 _atom_site_fract_y
 _atom_site_fract_z
 _atom_site_occupancy
  Li  Li0  1  0.750000  0.973350  0.031242  1
  Li  Li1  1  0.750000  0.473350  0.468758  1
  Li  Li2  1  0.250000  0.526650  0.531242  1
  Li  Li3  1  0.250000  0.026650  0.968758  1
  Mn  Mn4  1  0.750000  0.523032  0.714347  1
  Mn  Mn5  1  0.750000  0.023032  0.785653  1
  Mn  Mn6  1  0.250000  0.976968  0.214347  1
  Mn  Mn7  1  0.250000  0.476968  0.285653  1
  P  P8  1  0.952578  0.748418  0.348980  1
  P  P9  1  0.952578  0.248418  0.151020  1
  P  P10  1  0.750000  0.307202  0.959646  1
  P  P11  1  0.750000  0.807202  0.540354  1
  P  P12  1  0.547422  0.248418  0.151020  1
  P  P13  1  0.547422  0.748418  0.348980  1
  P  P14  1  0.452578  0.251582  0.651020  1
  P  P15  1  0.452578  0.751582  0.848980  1
  P  P16  1  0.250000  0.692798  0.040354  1
  P  P17  1  0.250000  0.192798  0.459646  1
  P  P18  1  0.047422  0.251582  0.651020  1
  P  P19  1  0.047422  0.751582  0.848980  1
  O  O20  1  0.982096  0.654293  0.758686  1
  O  O21  1  0.982096  0.154293  0.741314  1
  O  O22  1  0.941478  0.884477  0.882849  1
  O  O23  1  0.941478  0.384477  0.617151  1
  O  O24  1  0.917432  0.346148  0.040966  1
  O  O25  1  0.917432  0.846148  0.459034  1
  O  O26  1  0.750000  0.689170  0.318910  1
  O  O27  1  0.750000  0.906960  0.636274  1
  O  O28  1  0.750000  0.406960  0.863726  1
  O  O29  1  0.750000  0.144494  0.941773  1
  O  O30  1  0.750000  0.189170  0.181090  1
  O  O31  1  0.750000  0.644494  0.558227  1
  O  O32  1  0.582568  0.346148  0.040966  1
  O  O33  1  0.582568  0.846148  0.459034  1
  O  O34  1  0.558522  0.884477  0.882849  1
  O  O35  1  0.558522  0.384477  0.617151  1
  O  O36  1  0.517904  0.654293  0.758686  1
  O  O37  1  0.517904  0.154293  0.741314  1
  O  O38  1  0.482096  0.845707  0.258686  1
  O  O39  1  0.482096  0.345707  0.241314  1
  O  O40  1  0.441478  0.115523  0.117151  1
  O  O41  1  0.441478  0.615523  0.382849  1
  O  O42  1  0.417432  0.153852  0.540966  1
  O  O43  1  0.417432  0.653852  0.959034  1
  O  O44  1  0.250000  0.855506  0.058227  1
  O  O45  1  0.250000  0.593040  0.136274  1
  O  O46  1  0.250000  0.355506  0.441773  1
  O  O47  1  0.250000  0.093040  0.363726  1
  O  O48  1  0.250000  0.310830  0.681090  1
  O  O49  1  0.250000  0.810830  0.818910  1
  O  O50  1  0.082568  0.153852  0.540966  1
  O  O51  1  0.082568  0.653852  0.959034  1
  O  O52  1  0.058522  0.615523  0.382849  1
  O  O53  1  0.058522  0.115523  0.117151  1
  O  O54  1  0.017904  0.345707  0.241314  1
  O  O55  1  0.017904  0.845707  0.258686  1
