# generated using pymatgen
data_LiSn3(P3O10)2
_symmetry_space_group_name_H-M   'P 1'
_cell_length_a   8.76783150
_cell_length_b   8.76783150
_cell_length_c   12.51792444
_cell_angle_alpha   90.00000000
_cell_angle_beta   90.00000000
_cell_angle_gamma   105.53889704
_symmetry_Int_Tables_number   1
_chemical_formula_structural   LiSn3(P3O10)2
_chemical_formula_sum   'Li2 Sn6 P12 O40'
_cell_volume   927.14008723
_cell_formula_units_Z   2
loop_
 _symmetry_equiv_pos_site_id
 _symmetry_equiv_pos_as_xyz
  1  'x, y, z'
loop_
 _atom_site_type_symbol
 _atom_site_label
 _atom_site_symmetry_multiplicity
 _atom_site_fract_x
 _atom_site_fract_y
 _atom_site_fract_z
 _atom_site_occupancy
  Li  Li0  1  0.582741  0.582741  0.500000  1
  Li  Li1  1  0.417259  0.417259  0.000000  1
  Sn  Sn2  1  0.126381  0.126381  0.000000  1
  Sn  Sn3  1  0.702896  0.297104  0.250000  1
  Sn  Sn4  1  0.776355  0.223645  0.750000  1
  Sn  Sn5  1  0.297104  0.702896  0.750000  1
  Sn  Sn6  1  0.223645  0.776355  0.250000  1
  Sn  Sn7  1  0.873619  0.873619  0.500000  1
  P  P8  1  0.092678  0.377977  0.317991  1
  P  P9  1  0.377977  0.092678  0.682009  1
  P  P10  1  0.219343  0.317174  0.777450  1
  P  P11  1  0.317174  0.219343  0.222550  1
  P  P12  1  0.714578  0.145131  0.016404  1
  P  P13  1  0.145131  0.714578  0.983596  1
  P  P14  1  0.854869  0.285422  0.483596  1
  P  P15  1  0.285422  0.854869  0.516404  1
  P  P16  1  0.682826  0.780657  0.722550  1
  P  P17  1  0.780657  0.682826  0.277450  1
  P  P18  1  0.907322  0.622023  0.817991  1
  P  P19  1  0.622023  0.907322  0.182009  1
  O  O20  1  0.243007  0.183352  0.691314  1
  O  O21  1  0.183352  0.243007  0.308686  1
  O  O22  1  0.364198  0.035902  0.560708  1
  O  O23  1  0.035902  0.364198  0.439292  1
  O  O24  1  0.316252  0.326349  0.126528  1
  O  O25  1  0.326349  0.316252  0.873472  1
  O  O26  1  0.049461  0.665868  0.742884  1
  O  O27  1  0.665868  0.049461  0.257116  1
  O  O28  1  0.469255  0.265820  0.290337  1
  O  O29  1  0.265820  0.469255  0.709663  1
  O  O30  1  0.955310  0.736923  0.309622  1
  O  O31  1  0.736923  0.955310  0.690378  1
  O  O32  1  0.211110  0.536925  0.304780  1
  O  O33  1  0.536925  0.211110  0.695220  1
  O  O34  1  0.143451  0.651258  0.096377  1
  O  O35  1  0.651258  0.143451  0.903623  1
  O  O36  1  0.108446  0.823850  0.529914  1
  O  O37  1  0.823850  0.108446  0.470086  1
  O  O38  1  0.255099  0.646237  0.910547  1
  O  O39  1  0.646237  0.255099  0.089453  1
  O  O40  1  0.744901  0.353763  0.410547  1
  O  O41  1  0.353763  0.744901  0.589453  1
  O  O42  1  0.891554  0.176150  0.029914  1
  O  O43  1  0.176150  0.891554  0.970086  1
  O  O44  1  0.856549  0.348742  0.596377  1
  O  O45  1  0.348742  0.856549  0.403623  1
  O  O46  1  0.788890  0.463075  0.804780  1
  O  O47  1  0.463075  0.788890  0.195220  1
  O  O48  1  0.044690  0.263077  0.809622  1
  O  O49  1  0.263077  0.044690  0.190378  1
  O  O50  1  0.530745  0.734180  0.790337  1
  O  O51  1  0.734180  0.530745  0.209663  1
  O  O52  1  0.950539  0.334132  0.242884  1
  O  O53  1  0.334132  0.950539  0.757116  1
  O  O54  1  0.683748  0.673651  0.626528  1
  O  O55  1  0.673651  0.683748  0.373472  1
  O  O56  1  0.964098  0.635802  0.939292  1
  O  O57  1  0.635802  0.964098  0.060708  1
  O  O58  1  0.816648  0.756993  0.808686  1
  O  O59  1  0.756993  0.816648  0.191314  1
