# generated using pymatgen
data_Li3Fe2P2(CO7)2
_symmetry_space_group_name_H-M   'P 1'
_cell_length_a   9.44350287
_cell_length_b   6.47815169
_cell_length_c   10.17653472
_cell_angle_alpha   90.00000000
_cell_angle_beta   117.03512390
_cell_angle_gamma   90.00000000
_symmetry_Int_Tables_number   1
_chemical_formula_structural   Li3Fe2P2(CO7)2
_chemical_formula_sum   'Li6 Fe4 P4 C4 O28'
_cell_volume   554.53540105
_cell_formula_units_Z   2
loop_
 _symmetry_equiv_pos_site_id
 _symmetry_equiv_pos_as_xyz
  1  'x, y, z'
loop_
 _atom_site_type_symbol
 _atom_site_label
 _atom_site_symmetry_multiplicity
 _atom_site_fract_x
 _atom_site_fract_y
 _atom_site_fract_z
 _atom_site_occupancy
  Li  Li0  1  0.669036  0.749718  0.062438  1
  Li  Li1  1  0.168024  0.753884  0.566858  1
  Li  Li2  1  0.516308  0.536276  0.733730  1
  Li  Li3  1  0.483692  0.036276  0.266270  1
  Li  Li4  1  0.831976  0.253884  0.433142  1
  Li  Li5  1  0.330964  0.249718  0.937562  1
  Fe  Fe6  1  0.261630  0.247205  0.431630  1
  Fe  Fe7  1  0.770719  0.244763  0.936411  1
  Fe  Fe8  1  0.229281  0.744763  0.063589  1
  Fe  Fe9  1  0.738370  0.747205  0.568370  1
  P  P10  1  0.351251  0.751552  0.429944  1
  P  P11  1  0.845140  0.749275  0.923401  1
  P  P12  1  0.154860  0.249275  0.076599  1
  P  P13  1  0.648749  0.251552  0.570056  1
  C  C14  1  0.664275  0.242810  0.125223  1
  C  C15  1  0.170796  0.255524  0.628663  1
  C  C16  1  0.829204  0.755524  0.371337  1
  C  C17  1  0.335725  0.742810  0.874777  1
  O  O18  1  0.064628  0.246080  0.490954  1
  O  O19  1  0.559409  0.251344  0.986601  1
  O  O20  1  0.856527  0.751828  0.261706  1
  O  O21  1  0.811715  0.258093  0.149735  1
  O  O22  1  0.369036  0.718296  0.767579  1
  O  O23  1  0.318716  0.267702  0.649681  1
  O  O24  1  0.263790  0.935792  0.458592  1
  O  O25  1  0.258687  0.561725  0.442787  1
  O  O26  1  0.755817  0.937827  0.943922  1
  O  O27  1  0.743609  0.564728  0.933608  1
  O  O28  1  0.146158  0.248465  0.223782  1
  O  O29  1  0.018125  0.741062  0.046845  1
  O  O30  1  0.640935  0.274709  0.717712  1
  O  O31  1  0.525149  0.733332  0.557152  1
  O  O32  1  0.474851  0.233332  0.442848  1
  O  O33  1  0.359065  0.774709  0.282288  1
  O  O34  1  0.981875  0.241062  0.953155  1
  O  O35  1  0.853842  0.748465  0.776218  1
  O  O36  1  0.244183  0.437827  0.056078  1
  O  O37  1  0.256391  0.064728  0.066392  1
  O  O38  1  0.741313  0.061725  0.557213  1
  O  O39  1  0.736210  0.435792  0.541408  1
  O  O40  1  0.681284  0.767702  0.350319  1
  O  O41  1  0.630964  0.218296  0.232421  1
  O  O42  1  0.188285  0.758093  0.850265  1
  O  O43  1  0.143473  0.251828  0.738294  1
  O  O44  1  0.440591  0.751344  0.013399  1
  O  O45  1  0.935372  0.746080  0.509046  1
