# generated using pymatgen
data_Li3MnFe2(BO3)3
_symmetry_space_group_name_H-M   'P 1'
_cell_length_a   8.26020776
_cell_length_b   3.14897988
_cell_length_c   14.30411983
_cell_angle_alpha   90.00000000
_cell_angle_beta   90.11243794
_cell_angle_gamma   90.00000000
_symmetry_Int_Tables_number   1
_chemical_formula_structural   Li3MnFe2(BO3)3
_chemical_formula_sum   'Li6 Mn2 Fe4 B6 O18'
_cell_volume   372.06700622
_cell_formula_units_Z   2
loop_
 _symmetry_equiv_pos_site_id
 _symmetry_equiv_pos_as_xyz
  1  'x, y, z'
loop_
 _atom_site_type_symbol
 _atom_site_label
 _atom_site_symmetry_multiplicity
 _atom_site_fract_x
 _atom_site_fract_y
 _atom_site_fract_z
 _atom_site_occupancy
  Li  Li0  1  0.707292  0.500000  0.007338  1
  Li  Li1  1  0.660592  0.500000  0.642056  1
  Li  Li2  1  0.634975  0.500000  0.350162  1
  Li  Li3  1  0.206914  0.500000  0.509852  1
  Li  Li4  1  0.156770  0.500000  0.143169  1
  Li  Li5  1  0.132026  0.500000  0.848336  1
  Mn  Mn6  1  0.366466  0.000000  0.994034  1
  Mn  Mn7  1  0.307948  0.000000  0.320121  1
  Fe  Fe8  1  0.863346  0.000000  0.496245  1
  Fe  Fe9  1  0.824014  0.000000  0.183406  1
  Fe  Fe10  1  0.812171  0.000000  0.819838  1
  Fe  Fe11  1  0.324649  0.000000  0.683489  1
  B  B12  1  0.997175  0.500000  0.334081  1
  B  B13  1  0.998773  0.000000  0.000708  1
  B  B14  1  0.000178  0.500000  0.666666  1
  B  B15  1  0.500696  0.500000  0.831434  1
  B  B16  1  0.502069  0.000000  0.500188  1
  B  B17  1  0.502554  0.500000  0.166815  1
  O  O18  1  0.987712  0.500000  0.569622  1
  O  O19  1  0.981200  0.500000  0.237340  1
  O  O20  1  0.861480  0.500000  0.391649  1
  O  O21  1  0.861117  0.500000  0.721562  1
  O  O22  1  0.845710  0.000000  0.041769  1
  O  O23  1  0.654100  0.500000  0.872001  1
  O  O24  1  0.652600  0.500000  0.210637  1
  O  O25  1  0.640497  0.000000  0.556298  1
  O  O26  1  0.516396  0.000000  0.403806  1
  O  O27  1  0.492582  0.500000  0.069615  1
  O  O28  1  0.483117  0.500000  0.734611  1
  O  O29  1  0.362526  0.500000  0.887951  1
  O  O30  1  0.360840  0.500000  0.219560  1
  O  O31  1  0.348949  0.000000  0.542191  1
  O  O32  1  0.151569  0.500000  0.374865  1
  O  O33  1  0.152460  0.500000  0.708963  1
  O  O34  1  0.136437  0.000000  0.056449  1
  O  O35  1  0.012101  0.000000  0.903173  1
