# generated using pymatgen
data_Li2Cu3(CO3)3
_symmetry_space_group_name_H-M   'P 1'
_cell_length_a   8.10594606
_cell_length_b   6.18749563
_cell_length_c   8.14945480
_cell_angle_alpha   90.00000000
_cell_angle_beta   119.61804229
_cell_angle_gamma   90.00000000
_symmetry_Int_Tables_number   1
_chemical_formula_structural   Li2Cu3(CO3)3
_chemical_formula_sum   'Li4 Cu6 C6 O18'
_cell_volume   355.33378813
_cell_formula_units_Z   2
loop_
 _symmetry_equiv_pos_site_id
 _symmetry_equiv_pos_as_xyz
  1  'x, y, z'
loop_
 _atom_site_type_symbol
 _atom_site_label
 _atom_site_symmetry_multiplicity
 _atom_site_fract_x
 _atom_site_fract_y
 _atom_site_fract_z
 _atom_site_occupancy
  Li  Li0  1  0.965102  0.000000  0.622433  1
  Li  Li1  1  0.656131  0.500000  0.032996  1
  Li  Li2  1  0.378904  0.000000  0.343758  1
  Li  Li3  1  0.379799  0.500000  0.343789  1
  Cu  Cu4  1  0.679518  0.249257  0.706880  1
  Cu  Cu5  1  0.679518  0.750743  0.706880  1
  Cu  Cu6  1  0.020195  0.751258  0.324678  1
  Cu  Cu7  1  0.020195  0.248742  0.324678  1
  Cu  Cu8  1  0.299107  0.252513  0.965686  1
  Cu  Cu9  1  0.299107  0.747487  0.965686  1
  C  C10  1  0.663802  0.250089  0.331386  1
  C  C11  1  0.663802  0.749911  0.331386  1
  C  C12  1  0.004500  0.000000  0.003693  1
  C  C13  1  0.998513  0.500000  0.001392  1
  C  C14  1  0.334735  0.000000  0.663467  1
  C  C15  1  0.334450  0.500000  0.668254  1
  O  O16  1  0.932880  0.000000  0.113464  1
  O  O17  1  0.926464  0.500000  0.115098  1
  O  O18  1  0.844665  0.765997  0.441102  1
  O  O19  1  0.844665  0.234003  0.441102  1
  O  O20  1  0.590331  0.269390  0.151685  1
  O  O21  1  0.590331  0.730610  0.151685  1
  O  O22  1  0.894264  0.000000  0.819567  1
  O  O23  1  0.888543  0.500000  0.820423  1
  O  O24  1  0.551193  0.247253  0.406197  1
  O  O25  1  0.551193  0.752747  0.406197  1
  O  O26  1  0.189948  0.000000  0.072681  1
  O  O27  1  0.182833  0.500000  0.075304  1
  O  O28  1  0.517156  0.000000  0.745215  1
  O  O29  1  0.520632  0.500000  0.752194  1
  O  O30  1  0.233341  0.000000  0.478500  1
  O  O31  1  0.237289  0.500000  0.484496  1
  O  O32  1  0.246189  0.000000  0.760945  1
  O  O33  1  0.251650  0.500000  0.768882  1
