# generated using pymatgen
data_LiCoCSO7
_symmetry_space_group_name_H-M   'P 1'
_cell_length_a   5.13256544
_cell_length_b   6.46534294
_cell_length_c   8.82199281
_cell_angle_alpha   90.00000000
_cell_angle_beta   93.54136785
_cell_angle_gamma   90.00000000
_symmetry_Int_Tables_number   1
_chemical_formula_structural   LiCoCSO7
_chemical_formula_sum   'Li2 Co2 C2 S2 O14'
_cell_volume   292.18819491
_cell_formula_units_Z   2
loop_
 _symmetry_equiv_pos_site_id
 _symmetry_equiv_pos_as_xyz
  1  'x, y, z'
loop_
 _atom_site_type_symbol
 _atom_site_label
 _atom_site_symmetry_multiplicity
 _atom_site_fract_x
 _atom_site_fract_y
 _atom_site_fract_z
 _atom_site_occupancy
  Li  Li0  1  0.779231  0.488072  0.200130  1
  Li  Li1  1  0.220769  0.988072  0.799870  1
  Co  Co2  1  0.216290  0.233641  0.344970  1
  Co  Co3  1  0.783710  0.733641  0.655030  1
  C  C4  1  0.272169  0.259103  0.070278  1
  C  C5  1  0.727831  0.759103  0.929722  1
  S  S6  1  0.270570  0.748018  0.425293  1
  S  S7  1  0.729430  0.248018  0.574707  1
  O  O8  1  0.696059  0.721825  0.066050  1
  O  O9  1  0.044517  0.267032  0.129240  1
  O  O10  1  0.464745  0.284746  0.174596  1
  O  O11  1  0.210880  0.933191  0.328945  1
  O  O12  1  0.169510  0.567737  0.336640  1
  O  O13  1  0.850746  0.265157  0.426512  1
  O  O14  1  0.560150  0.733627  0.455439  1
  O  O15  1  0.439850  0.233627  0.544561  1
  O  O16  1  0.149254  0.765157  0.573488  1
  O  O17  1  0.830490  0.067737  0.663360  1
  O  O18  1  0.789120  0.433191  0.671055  1
  O  O19  1  0.535255  0.784746  0.825404  1
  O  O20  1  0.955483  0.767032  0.870760  1
  O  O21  1  0.303941  0.221825  0.933950  1
