# generated using pymatgen
data_Li2FeNi3O8
_symmetry_space_group_name_H-M   'P 1'
_cell_length_a   5.85039250
_cell_length_b   5.85039250
_cell_length_c   5.86202235
_cell_angle_alpha   60.46892387
_cell_angle_beta   119.53107613
_cell_angle_gamma   121.44634770
_symmetry_Int_Tables_number   1
_chemical_formula_structural   Li2FeNi3O8
_chemical_formula_sum   'Li2 Fe1 Ni3 O8'
_cell_volume   141.22360996
_cell_formula_units_Z   1
loop_
 _symmetry_equiv_pos_site_id
 _symmetry_equiv_pos_as_xyz
  1  'x, y, z'
loop_
 _atom_site_type_symbol
 _atom_site_label
 _atom_site_symmetry_multiplicity
 _atom_site_fract_x
 _atom_site_fract_y
 _atom_site_fract_z
 _atom_site_occupancy
  Li  Li0  1  0.500000  0.000000  0.500000  1
  Li  Li1  1  0.000000  0.500000  0.500000  1
  Fe  Fe2  1  0.000000  0.000000  0.000000  1
  Ni  Ni3  1  0.500000  0.000000  0.000000  1
  Ni  Ni4  1  0.000000  0.500000  0.000000  1
  Ni  Ni5  1  0.500000  0.500000  0.000000  1
  O  O6  1  0.723048  0.276952  0.203226  1
  O  O7  1  0.252877  0.251065  0.214549  1
  O  O8  1  0.748935  0.747123  0.214549  1
  O  O9  1  0.226369  0.773631  0.212902  1
  O  O10  1  0.773631  0.226369  0.787098  1
  O  O11  1  0.251065  0.252877  0.785451  1
  O  O12  1  0.747123  0.748935  0.785451  1
  O  O13  1  0.276952  0.723048  0.796774  1
