# generated using pymatgen
data_LiV6O7F5
_symmetry_space_group_name_H-M   'P 1'
_cell_length_a   5.67593811
_cell_length_b   5.69250873
_cell_length_c   7.56164560
_cell_angle_alpha   71.37583287
_cell_angle_beta   71.13984153
_cell_angle_gamma   72.15434853
_symmetry_Int_Tables_number   1
_chemical_formula_structural   LiV6O7F5
_chemical_formula_sum   'Li1 V6 O7 F5'
_cell_volume   213.39481119
_cell_formula_units_Z   1
loop_
 _symmetry_equiv_pos_site_id
 _symmetry_equiv_pos_as_xyz
  1  'x, y, z'
loop_
 _atom_site_type_symbol
 _atom_site_label
 _atom_site_symmetry_multiplicity
 _atom_site_fract_x
 _atom_site_fract_y
 _atom_site_fract_z
 _atom_site_occupancy
  Li  Li0  1  0.431686  0.926553  0.572243  1
  V  V1  1  0.678654  0.662931  0.848875  1
  V  V2  1  0.374828  0.338695  0.690353  1
  V  V3  1  0.668454  0.654988  0.320203  1
  V  V4  1  0.989905  0.024467  0.483929  1
  V  V5  1  0.320437  0.306245  0.159168  1
  V  V6  1  0.970922  0.024157  0.997648  1
  O  O7  1  0.221814  0.222751  0.968427  1
  O  O8  1  0.576508  0.579317  0.629687  1
  O  O9  1  0.643195  0.025082  0.667716  1
  O  O10  1  0.965851  0.364479  0.329088  1
  O  O11  1  0.358183  0.948868  0.343479  1
  O  O12  1  0.771914  0.772277  0.034399  1
  O  O13  1  0.680486  0.311578  0.002341  1
  F  F14  1  0.050218  0.635830  0.663761  1
  F  F15  1  0.110637  0.108519  0.692605  1
  F  F16  1  0.888735  0.904237  0.295780  1
  F  F17  1  0.430373  0.415190  0.373746  1
  F  F18  1  0.290955  0.702053  0.002081  1
