# generated using pymatgen
data_Li2MnFe(BO3)2
_symmetry_space_group_name_H-M   'P 1'
_cell_length_a   5.19933000
_cell_length_b   6.01980011
_cell_length_c   9.09883748
_cell_angle_alpha   103.74659529
_cell_angle_beta   89.85731000
_cell_angle_gamma   113.19368787
_symmetry_Int_Tables_number   1
_chemical_formula_structural   Li2MnFe(BO3)2
_chemical_formula_sum   'Li4 Mn2 Fe2 B4 O12'
_cell_volume   252.94230828
_cell_formula_units_Z   2
loop_
 _symmetry_equiv_pos_site_id
 _symmetry_equiv_pos_as_xyz
  1  'x, y, z'
loop_
 _atom_site_type_symbol
 _atom_site_label
 _atom_site_symmetry_multiplicity
 _atom_site_fract_x
 _atom_site_fract_y
 _atom_site_fract_z
 _atom_site_occupancy
  Li  Li0  1  0.504120  0.673498  0.434538  1
  Li  Li1  1  0.007370  0.679330  0.937698  1
  Li  Li2  1  0.495880  0.326502  0.565462  1
  Li  Li3  1  0.992630  0.320670  0.062302  1
  Mn  Mn4  1  0.037932  0.768275  0.627742  1
  Mn  Mn5  1  0.962068  0.231725  0.372258  1
  Fe  Fe6  1  0.526647  0.758293  0.120990  1
  Fe  Fe7  1  0.473353  0.241707  0.879010  1
  B  B8  1  0.022738  0.736595  0.287249  1
  B  B9  1  0.523641  0.740817  0.790428  1
  B  B10  1  0.977262  0.263405  0.712751  1
  B  B11  1  0.476359  0.259183  0.209572  1
  O  O12  1  0.806269  0.820079  0.310246  1
  O  O13  1  0.311703  0.829036  0.819042  1
  O  O14  1  0.611205  0.704396  0.646284  1
  O  O15  1  0.133666  0.679112  0.404557  1
  O  O16  1  0.637727  0.682372  0.907006  1
  O  O17  1  0.388795  0.295604  0.353716  1
  O  O18  1  0.119512  0.702596  0.145287  1
  O  O19  1  0.866334  0.320888  0.595443  1
  O  O20  1  0.362273  0.317628  0.092994  1
  O  O21  1  0.880488  0.297404  0.854713  1
  O  O22  1  0.193731  0.179921  0.689754  1
  O  O23  1  0.688297  0.170964  0.180958  1
