# generated using pymatgen
data_Mn2Fe3Sb(PO4)6
_symmetry_space_group_name_H-M   'P 1'
_cell_length_a   8.70139320
_cell_length_b   8.70139320
_cell_length_c   8.70139320
_cell_angle_alpha   59.81437233
_cell_angle_beta   59.81437233
_cell_angle_gamma   59.81437233
_symmetry_Int_Tables_number   1
_chemical_formula_structural   Mn2Fe3Sb(PO4)6
_chemical_formula_sum   'Mn2 Fe3 Sb1 P6 O24'
_cell_volume   463.89277191
_cell_formula_units_Z   1
loop_
 _symmetry_equiv_pos_site_id
 _symmetry_equiv_pos_as_xyz
  1  'x, y, z'
loop_
 _atom_site_type_symbol
 _atom_site_label
 _atom_site_symmetry_multiplicity
 _atom_site_fract_x
 _atom_site_fract_y
 _atom_site_fract_z
 _atom_site_occupancy
  Mn  Mn0  1  0.993269  0.993269  0.993269  1
  Mn  Mn1  1  0.500527  0.500527  0.500527  1
  Fe  Fe2  1  0.853121  0.853121  0.853121  1
  Fe  Fe3  1  0.646129  0.646129  0.646129  1
  Fe  Fe4  1  0.355086  0.355086  0.355086  1
  Sb  Sb5  1  0.144210  0.144210  0.144210  1
  P  P6  1  0.253502  0.545917  0.955006  1
  P  P7  1  0.955006  0.253502  0.545917  1
  P  P8  1  0.545917  0.955006  0.253502  1
  P  P9  1  0.460594  0.044246  0.747632  1
  P  P10  1  0.044246  0.747632  0.460594  1
  P  P11  1  0.747632  0.460594  0.044246  1
  O  O12  1  0.698453  0.489379  0.884568  1
  O  O13  1  0.489379  0.884568  0.698453  1
  O  O14  1  0.086216  0.734318  0.942490  1
  O  O15  1  0.884568  0.698453  0.489379  1
  O  O16  1  0.194448  0.383894  0.988372  1
  O  O17  1  0.414560  0.557341  0.763305  1
  O  O18  1  0.942490  0.086216  0.734318  1
  O  O19  1  0.763305  0.414560  0.557341  1
  O  O20  1  0.613434  0.005823  0.812246  1
  O  O21  1  0.557341  0.763305  0.414560  1
  O  O22  1  0.260930  0.059670  0.918396  1
  O  O23  1  0.005823  0.812246  0.613434  1
  O  O24  1  0.988372  0.194448  0.383894  1
  O  O25  1  0.734318  0.942490  0.086216  1
  O  O26  1  0.437918  0.238481  0.589564  1
  O  O27  1  0.383894  0.988372  0.194448  1
  O  O28  1  0.238481  0.589564  0.437918  1
  O  O29  1  0.059670  0.918396  0.260930  1
  O  O30  1  0.589564  0.437918  0.238481  1
  O  O31  1  0.812246  0.613434  0.005823  1
  O  O32  1  0.116366  0.309758  0.500829  1
  O  O33  1  0.918396  0.260930  0.059670  1
  O  O34  1  0.500829  0.116366  0.309758  1
  O  O35  1  0.309758  0.500829  0.116366  1
