# generated using pymatgen
data_Li4Mn2Fe3P6WO24
_symmetry_space_group_name_H-M   'P 1'
_cell_length_a   8.58273293
_cell_length_b   8.63874719
_cell_length_c   8.69785714
_cell_angle_alpha   63.24133927
_cell_angle_beta   63.52672983
_cell_angle_gamma   63.67676111
_symmetry_Int_Tables_number   1
_chemical_formula_structural   Li4Mn2Fe3P6WO24
_chemical_formula_sum   'Li4 Mn2 Fe3 P6 W1 O24'
_cell_volume   491.10934294
_cell_formula_units_Z   1
loop_
 _symmetry_equiv_pos_site_id
 _symmetry_equiv_pos_as_xyz
  1  'x, y, z'
loop_
 _atom_site_type_symbol
 _atom_site_label
 _atom_site_symmetry_multiplicity
 _atom_site_fract_x
 _atom_site_fract_y
 _atom_site_fract_z
 _atom_site_occupancy
  Li  Li0  1  0.254457  0.649578  0.847964  1
  Li  Li1  1  0.701852  0.355459  0.155419  1
  Li  Li2  1  0.355765  0.153565  0.707222  1
  Li  Li3  1  0.152755  0.701985  0.363703  1
  Mn  Mn4  1  0.978636  0.002436  0.990156  1
  Mn  Mn5  1  0.513768  0.501507  0.495683  1
  Fe  Fe6  1  0.651294  0.650277  0.645714  1
  Fe  Fe7  1  0.850618  0.851224  0.849741  1
  Fe  Fe8  1  0.346069  0.343413  0.347920  1
  P  P9  1  0.949680  0.556944  0.252773  1
  P  P10  1  0.554547  0.255743  0.946125  1
  P  P11  1  0.253992  0.946344  0.556524  1
  P  P12  1  0.752208  0.048271  0.454871  1
  P  P13  1  0.444324  0.748601  0.051125  1
  P  P14  1  0.056905  0.452734  0.753854  1
  W  W15  1  0.145677  0.146588  0.149938  1
  O  O16  1  0.528753  0.315368  0.100520  1
  O  O17  1  0.320679  0.098468  0.528133  1
  O  O18  1  0.099397  0.527565  0.323556  1
  O  O19  1  0.948050  0.734015  0.088173  1
  O  O20  1  0.002183  0.391618  0.187946  1
  O  O21  1  0.761515  0.565659  0.397290  1
  O  O22  1  0.736725  0.102100  0.922758  1
  O  O23  1  0.546109  0.415948  0.767308  1
  O  O24  1  0.827165  0.009977  0.599819  1
  O  O25  1  0.399225  0.754554  0.572595  1
  O  O26  1  0.902375  0.081355  0.253994  1
  O  O27  1  0.602962  0.812664  0.001561  1
  O  O28  1  0.389011  0.190437  0.994358  1
  O  O29  1  0.103784  0.923204  0.745321  1
  O  O30  1  0.601368  0.240776  0.431992  1
  O  O31  1  0.188677  0.991140  0.397867  1
  O  O32  1  0.431505  0.593153  0.240394  1
  O  O33  1  0.248229  0.901882  0.091813  1
  O  O34  1  0.244269  0.428017  0.597188  1
  O  O35  1  0.042913  0.595295  0.821393  1
  O  O36  1  0.082158  0.251582  0.902444  1
  O  O37  1  0.891130  0.494135  0.704543  1
  O  O38  1  0.691258  0.896054  0.481057  1
  O  O39  1  0.448011  0.697367  0.902247  1
