# generated using pymatgen
data_Li3Ni2O2F3
_symmetry_space_group_name_H-M   'P 1'
_cell_length_a   10.59642974
_cell_length_b   10.59642974
_cell_length_c   10.59642974
_cell_angle_alpha   164.04969530
_cell_angle_beta   164.04969530
_cell_angle_gamma   22.63120001
_symmetry_Int_Tables_number   1
_chemical_formula_structural   Li3Ni2O2F3
_chemical_formula_sum   'Li3 Ni2 O2 F3'
_cell_volume   89.83375506
_cell_formula_units_Z   1
loop_
 _symmetry_equiv_pos_site_id
 _symmetry_equiv_pos_as_xyz
  1  'x, y, z'
loop_
 _atom_site_type_symbol
 _atom_site_label
 _atom_site_symmetry_multiplicity
 _atom_site_fract_x
 _atom_site_fract_y
 _atom_site_fract_z
 _atom_site_occupancy
  Li  Li0  1  0.901234  0.901234  0.000000  1
  Li  Li1  1  0.500000  0.500000  0.000000  1
  Li  Li2  1  0.098766  0.098766  0.000000  1
  Ni  Ni3  1  0.700320  0.700320  0.000000  1
  Ni  Ni4  1  0.299680  0.299680  0.000000  1
  O  O5  1  0.198243  0.198243  0.000000  1
  O  O6  1  0.801757  0.801757  0.000000  1
  F  F7  1  0.404014  0.404014  0.000000  1
  F  F8  1  0.000000  0.000000  0.000000  1
  F  F9  1  0.595986  0.595986  0.000000  1
