# generated using pymatgen
data_LiTi2O4
_symmetry_space_group_name_H-M   'P 1'
_cell_length_a   5.93802380
_cell_length_b   5.93802380
_cell_length_c   9.63637865
_cell_angle_alpha   90.00000000
_cell_angle_beta   90.00000000
_cell_angle_gamma   120.00000000
_symmetry_Int_Tables_number   1
_chemical_formula_structural   LiTi2O4
_chemical_formula_sum   'Li4 Ti8 O16'
_cell_volume   294.25805235
_cell_formula_units_Z   4
loop_
 _symmetry_equiv_pos_site_id
 _symmetry_equiv_pos_as_xyz
  1  'x, y, z'
loop_
 _atom_site_type_symbol
 _atom_site_label
 _atom_site_symmetry_multiplicity
 _atom_site_fract_x
 _atom_site_fract_y
 _atom_site_fract_z
 _atom_site_occupancy
  Li  Li0  1  0.333333  0.666667  0.893735  1
  Li  Li1  1  0.000000  0.000000  0.995048  1
  Li  Li2  1  0.000000  0.000000  0.495048  1
  Li  Li3  1  0.666667  0.333333  0.393735  1
  Ti  Ti4  1  0.170884  0.829116  0.215465  1
  Ti  Ti5  1  0.658233  0.829116  0.215465  1
  Ti  Ti6  1  0.341767  0.170884  0.715465  1
  Ti  Ti7  1  0.829116  0.170884  0.715465  1
  Ti  Ti8  1  0.333333  0.666667  0.488881  1
  Ti  Ti9  1  0.170884  0.341767  0.215465  1
  Ti  Ti10  1  0.666667  0.333333  0.988881  1
  Ti  Ti11  1  0.829116  0.658233  0.715465  1
  O  O12  1  0.166324  0.833676  0.598341  1
  O  O13  1  0.039844  0.519922  0.340753  1
  O  O14  1  0.333333  0.666667  0.102897  1
  O  O15  1  0.000000  0.000000  0.309921  1
  O  O16  1  0.000000  0.000000  0.809921  1
  O  O17  1  0.166324  0.332647  0.598341  1
  O  O18  1  0.480078  0.960156  0.340753  1
  O  O19  1  0.480078  0.519922  0.340753  1
  O  O20  1  0.332647  0.166324  0.098341  1
  O  O21  1  0.667353  0.833676  0.598341  1
  O  O22  1  0.519922  0.480078  0.840753  1
  O  O23  1  0.519922  0.039844  0.840753  1
  O  O24  1  0.666667  0.333333  0.602897  1
  O  O25  1  0.833676  0.667353  0.098341  1
  O  O26  1  0.960156  0.480078  0.840753  1
  O  O27  1  0.833676  0.166324  0.098341  1
