# generated using pymatgen
data_Li24Ti5Cr7O36
_symmetry_space_group_name_H-M   'P 1'
_cell_length_a   5.05055628
_cell_length_b   9.79533540
_cell_length_c   13.41015164
_cell_angle_alpha   80.77661278
_cell_angle_beta   79.23298110
_cell_angle_gamma   85.37121659
_symmetry_Int_Tables_number   1
_chemical_formula_structural   Li24Ti5Cr7O36
_chemical_formula_sum   'Li24 Ti5 Cr7 O36'
_cell_volume   642.43760492
_cell_formula_units_Z   1
loop_
 _symmetry_equiv_pos_site_id
 _symmetry_equiv_pos_as_xyz
  1  'x, y, z'
loop_
 _atom_site_type_symbol
 _atom_site_label
 _atom_site_symmetry_multiplicity
 _atom_site_fract_x
 _atom_site_fract_y
 _atom_site_fract_z
 _atom_site_occupancy
  Li  Li0  1  0.670628  0.000552  0.167100  1
  Li  Li1  1  0.561838  0.000993  0.384158  1
  Li  Li2  1  0.248038  0.748775  0.750728  1
  Li  Li3  1  0.584283  0.750324  0.081489  1
  Li  Li4  1  0.064309  0.498520  0.888040  1
  Li  Li5  1  0.401791  0.498883  0.222205  1
  Li  Li6  1  0.160972  0.498224  0.667177  1
  Li  Li7  1  0.497999  0.501835  0.001406  1
  Li  Li8  1  0.264465  0.500747  0.443813  1
  Li  Li9  1  0.082214  0.250238  0.583476  1
  Li  Li10  1  0.994889  0.000339  0.500918  1
  Li  Li11  1  0.768624  0.000240  0.946819  1
  Li  Li12  1  0.105241  0.998529  0.282090  1
  Li  Li13  1  0.901189  0.001004  0.718932  1
  Li  Li14  1  0.230270  0.000147  0.051138  1
  Li  Li15  1  0.915745  0.750946  0.417078  1
  Li  Li16  1  0.737319  0.501139  0.554808  1
  Li  Li17  1  0.833845  0.500615  0.333854  1
  Li  Li18  1  0.604534  0.501952  0.778895  1
  Li  Li19  1  0.931176  0.499991  0.110654  1
  Li  Li20  1  0.416882  0.250584  0.917017  1
  Li  Li21  1  0.331476  0.999705  0.834415  1
  Li  Li22  1  0.748527  0.250052  0.248470  1
  Li  Li23  1  0.436237  0.998942  0.613239  1
  Ti  Ti24  1  0.357866  0.755033  0.525886  1
  Ti  Ti25  1  0.309058  0.247002  0.139992  1
  Ti  Ti26  1  0.030105  0.746866  0.192953  1
  Ti  Ti27  1  0.531149  0.246978  0.695191  1
  Ti  Ti28  1  0.632964  0.254796  0.471913  1
  Cr  Cr29  1  0.860114  0.253023  0.025619  1
  Cr  Cr30  1  0.475428  0.750193  0.305463  1
  Cr  Cr31  1  0.976502  0.248523  0.808060  1
  Cr  Cr32  1  0.189266  0.249496  0.360002  1
  Cr  Cr33  1  0.699040  0.748414  0.864189  1
  Cr  Cr34  1  0.798049  0.750292  0.641270  1
  Cr  Cr35  1  0.142006  0.749502  0.969769  1
  O  O36  1  0.933437  0.862455  0.069142  1
  O  O37  1  0.716826  0.633761  0.213925  1
  O  O38  1  0.428455  0.365219  0.571376  1
  O  O39  1  0.497530  0.361685  0.354909  1
  O  O40  1  0.615721  0.366806  0.118458  1
  O  O41  1  0.257275  0.863940  0.404419  1
  O  O42  1  0.217492  0.133015  0.715134  1
  O  O43  1  0.330257  0.138692  0.475363  1
  O  O44  1  0.555753  0.134251  0.047344  1
  O  O45  1  0.004217  0.861803  0.859535  1
  O  O46  1  0.115971  0.864220  0.619503  1
  O  O47  1  0.339149  0.861286  0.190644  1
  O  O48  1  0.409908  0.135309  0.261030  1
  O  O49  1  0.829860  0.637195  0.975150  1
  O  O50  1  0.044357  0.635563  0.550490  1
  O  O51  1  0.169434  0.637600  0.310872  1
  O  O52  1  0.900643  0.638202  0.765857  1
  O  O53  1  0.238195  0.636569  0.094065  1
  O  O54  1  0.757584  0.360369  0.908335  1
  O  O55  1  0.094938  0.361594  0.241043  1
  O  O56  1  0.835092  0.361799  0.692588  1
  O  O57  1  0.948975  0.366486  0.452801  1
  O  O58  1  0.162733  0.362128  0.022579  1
  O  O59  1  0.598845  0.860533  0.735846  1
  O  O60  1  0.669134  0.137366  0.811847  1
  O  O61  1  0.889365  0.136070  0.380385  1
  O  O62  1  0.998443  0.137455  0.141361  1
  O  O63  1  0.458946  0.864772  0.948102  1
  O  O64  1  0.664435  0.864308  0.522228  1
  O  O65  1  0.779936  0.864407  0.285357  1
  O  O66  1  0.736467  0.136044  0.595863  1
  O  O67  1  0.375075  0.636911  0.883993  1
  O  O68  1  0.507463  0.636949  0.644433  1
  O  O69  1  0.571663  0.638122  0.425630  1
  O  O70  1  0.276915  0.364842  0.786618  1
  O  O71  1  0.075472  0.138877  0.925550  1
