# generated using pymatgen
data_Li4Ti11O24
_symmetry_space_group_name_H-M   'P 1'
_cell_length_a   10.26379585
_cell_length_b   10.26379585
_cell_length_c   8.50023519
_cell_angle_alpha   65.92981403
_cell_angle_beta   114.07018597
_cell_angle_gamma   146.07120617
_symmetry_Int_Tables_number   1
_chemical_formula_structural   Li4Ti11O24
_chemical_formula_sum   'Li4 Ti11 O24'
_cell_volume   452.09561003
_cell_formula_units_Z   1
loop_
 _symmetry_equiv_pos_site_id
 _symmetry_equiv_pos_as_xyz
  1  'x, y, z'
loop_
 _atom_site_type_symbol
 _atom_site_label
 _atom_site_symmetry_multiplicity
 _atom_site_fract_x
 _atom_site_fract_y
 _atom_site_fract_z
 _atom_site_occupancy
  Li  Li0  1  0.584034  0.415966  0.468016  1
  Li  Li1  1  0.415966  0.584034  0.531984  1
  Li  Li2  1  0.089056  0.910944  0.210924  1
  Li  Li3  1  0.910944  0.089056  0.789076  1
  Ti  Ti4  1  0.666793  0.822433  0.161110  1
  Ti  Ti5  1  0.822433  0.666793  0.838890  1
  Ti  Ti6  1  0.170570  0.829430  0.685741  1
  Ti  Ti7  1  0.341466  0.658534  0.842721  1
  Ti  Ti8  1  0.177567  0.333207  0.161110  1
  Ti  Ti9  1  0.333207  0.177567  0.838890  1
  Ti  Ti10  1  0.000000  0.500000  0.500000  1
  Ti  Ti11  1  0.829430  0.170570  0.314259  1
  Ti  Ti12  1  0.658534  0.341466  0.157279  1
  Ti  Ti13  1  0.000000  1.000000  0.500000  1
  Ti  Ti14  1  0.500000  0.000000  0.500000  1
  O  O15  1  0.865883  0.698408  0.595315  1
  O  O16  1  0.698408  0.865883  0.404685  1
  O  O17  1  0.653383  0.835152  0.928254  1
  O  O18  1  0.177971  0.822029  0.435815  1
  O  O19  1  0.155796  0.844204  0.886395  1
  O  O20  1  0.489362  0.510638  0.251633  1
  O  O21  1  0.346176  0.653824  0.076661  1
  O  O22  1  0.327211  0.672789  0.587177  1
  O  O23  1  0.510638  0.489362  0.748367  1
  O  O24  1  0.034028  0.534486  0.729005  1
  O  O25  1  0.164848  0.346617  0.928254  1
  O  O26  1  0.835152  0.653383  0.071746  1
  O  O27  1  0.301592  0.134117  0.595315  1
  O  O28  1  0.134117  0.301592  0.404685  1
  O  O29  1  0.965972  0.465514  0.270995  1
  O  O30  1  0.007080  0.992920  0.744135  1
  O  O31  1  0.672789  0.327211  0.412823  1
  O  O32  1  0.992920  0.007080  0.255865  1
  O  O33  1  0.844204  0.155796  0.113605  1
  O  O34  1  0.822029  0.177971  0.564185  1
  O  O35  1  0.653824  0.346176  0.923339  1
  O  O36  1  0.534486  0.034028  0.270995  1
  O  O37  1  0.346617  0.164848  0.071746  1
  O  O38  1  0.465514  0.965972  0.729005  1
