# generated using pymatgen
data_LiMn5O3F5
_symmetry_space_group_name_H-M   'P 1'
_cell_length_a   6.41095854
_cell_length_b   6.41095854
_cell_length_c   6.41137217
_cell_angle_alpha   60.14044939
_cell_angle_beta   119.85955061
_cell_angle_gamma   120.36692969
_symmetry_Int_Tables_number   1
_chemical_formula_structural   LiMn5O3F5
_chemical_formula_sum   'Li1 Mn5 O3 F5'
_cell_volume   186.19875263
_cell_formula_units_Z   1
loop_
 _symmetry_equiv_pos_site_id
 _symmetry_equiv_pos_as_xyz
  1  'x, y, z'
loop_
 _atom_site_type_symbol
 _atom_site_label
 _atom_site_symmetry_multiplicity
 _atom_site_fract_x
 _atom_site_fract_y
 _atom_site_fract_z
 _atom_site_occupancy
  Li  Li0  1  0.606694  0.393306  0.350821  1
  Mn  Mn1  1  0.977509  0.022491  0.008916  1
  Mn  Mn2  1  0.284073  0.715927  0.774768  1
  Mn  Mn3  1  0.612561  0.863881  0.360522  1
  Mn  Mn4  1  0.136119  0.387439  0.360522  1
  Mn  Mn5  1  0.623792  0.376208  0.869482  1
  O  O6  1  0.398150  0.601850  0.615070  1
  O  O7  1  0.389056  0.610944  0.152210  1
  O  O8  1  0.849743  0.150257  0.137723  1
  F  F9  1  0.390644  0.128716  0.618394  1
  F  F10  1  0.871284  0.609356  0.618394  1
  F  F11  1  0.861798  0.619109  0.135364  1
  F  F12  1  0.380891  0.138202  0.135364  1
  F  F13  1  0.867687  0.132313  0.612449  1
