# generated using pymatgen
data_Li4Cr5O10
_symmetry_space_group_name_H-M   'P 1'
_cell_length_a   5.13367553
_cell_length_b   5.93273540
_cell_length_c   6.62207290
_cell_angle_alpha   102.87914625
_cell_angle_beta   97.44044445
_cell_angle_gamma   106.82960109
_symmetry_Int_Tables_number   1
_chemical_formula_structural   Li4Cr5O10
_chemical_formula_sum   'Li4 Cr5 O10'
_cell_volume   184.07816754
_cell_formula_units_Z   1
loop_
 _symmetry_equiv_pos_site_id
 _symmetry_equiv_pos_as_xyz
  1  'x, y, z'
loop_
 _atom_site_type_symbol
 _atom_site_label
 _atom_site_symmetry_multiplicity
 _atom_site_fract_x
 _atom_site_fract_y
 _atom_site_fract_z
 _atom_site_occupancy
  Li  Li0  1  0.598718  0.194811  0.194159  1
  Li  Li1  1  0.803693  0.606518  0.607879  1
  Li  Li2  1  0.196307  0.393482  0.392121  1
  Li  Li3  1  0.401282  0.805189  0.805841  1
  Cr  Cr4  1  0.798857  0.096975  0.604937  1
  Cr  Cr5  1  0.393869  0.295617  0.801419  1
  Cr  Cr6  1  0.606131  0.704383  0.198581  1
  Cr  Cr7  1  0.000000  0.500000  0.000000  1
  Cr  Cr8  1  0.201143  0.903025  0.395063  1
  O  O9  1  0.694900  0.171255  0.888816  1
  O  O10  1  0.894637  0.035962  0.320133  1
  O  O11  1  0.496588  0.234636  0.510742  1
  O  O12  1  0.688223  0.622068  0.909180  1
  O  O13  1  0.093454  0.432619  0.711523  1
  O  O14  1  0.906546  0.567381  0.288477  1
  O  O15  1  0.311777  0.377932  0.090820  1
  O  O16  1  0.503412  0.765364  0.489258  1
  O  O17  1  0.105363  0.964038  0.679867  1
  O  O18  1  0.305100  0.828745  0.111184  1
