# generated using pymatgen
data_Dy2W2O9
_symmetry_space_group_name_H-M   'P 1'
_cell_length_a   6.72517380
_cell_length_b   7.11878250
_cell_length_c   7.41321327
_cell_angle_alpha   70.34764470
_cell_angle_beta   84.79954394
_cell_angle_gamma   82.94183896
_symmetry_Int_Tables_number   1
_chemical_formula_structural   Dy2W2O9
_chemical_formula_sum   'Dy4 W4 O18'
_cell_volume   331.23981308
_cell_formula_units_Z   2
loop_
 _symmetry_equiv_pos_site_id
 _symmetry_equiv_pos_as_xyz
  1  'x, y, z'
loop_
 _atom_site_type_symbol
 _atom_site_label
 _atom_site_symmetry_multiplicity
 _atom_site_fract_x
 _atom_site_fract_y
 _atom_site_fract_z
 _atom_site_occupancy
  Dy  Dy0  1  0.152361  0.259316  0.154861  1
  Dy  Dy1  1  0.616413  0.282487  0.378248  1
  Dy  Dy2  1  0.383587  0.717513  0.621752  1
  Dy  Dy3  1  0.847639  0.740684  0.845139  1
  W  W4  1  0.271141  0.734477  0.056889  1
  W  W5  1  0.841221  0.791247  0.366220  1
  W  W6  1  0.158779  0.208753  0.633780  1
  W  W7  1  0.728859  0.265523  0.943111  1
  O  O8  1  0.494872  0.230545  0.094163  1
  O  O9  1  0.855503  0.067532  0.209817  1
  O  O10  1  0.815319  0.428997  0.091409  1
  O  O11  1  0.332654  0.496385  0.248680  1
  O  O12  1  0.964779  0.733717  0.140790  1
  O  O13  1  0.263787  0.929248  0.168864  1
  O  O14  1  0.315798  0.086658  0.462989  1
  O  O15  1  0.634177  0.639455  0.378358  1
  O  O16  1  0.959713  0.303819  0.462144  1
  O  O17  1  0.040287  0.696181  0.537856  1
  O  O18  1  0.365823  0.360545  0.621642  1
  O  O19  1  0.684202  0.913342  0.537011  1
  O  O20  1  0.736213  0.070752  0.831136  1
  O  O21  1  0.035221  0.266283  0.859210  1
  O  O22  1  0.667346  0.503615  0.751320  1
  O  O23  1  0.184681  0.571003  0.908591  1
  O  O24  1  0.144497  0.932468  0.790183  1
  O  O25  1  0.505128  0.769455  0.905837  1
