# generated using pymatgen
data_BaCa2I6
_symmetry_space_group_name_H-M   'P 1'
_cell_length_a   8.08963058
_cell_length_b   8.08963058
_cell_length_c   24.00320083
_cell_angle_alpha   90.00000000
_cell_angle_beta   90.00000000
_cell_angle_gamma   90.00000000
_symmetry_Int_Tables_number   1
_chemical_formula_structural   BaCa2I6
_chemical_formula_sum   'Ba4 Ca8 I24'
_cell_volume   1570.82041921
_cell_formula_units_Z   4
loop_
 _symmetry_equiv_pos_site_id
 _symmetry_equiv_pos_as_xyz
  1  'x, y, z'
loop_
 _atom_site_type_symbol
 _atom_site_label
 _atom_site_symmetry_multiplicity
 _atom_site_fract_x
 _atom_site_fract_y
 _atom_site_fract_z
 _atom_site_occupancy
  Ba  Ba0  1  0.000000  0.000000  0.000000  1
  Ba  Ba1  1  0.500000  0.000000  0.500000  1
  Ba  Ba2  1  0.000000  0.500000  0.500000  1
  Ba  Ba3  1  0.500000  0.500000  0.000000  1
  Ca  Ca4  1  0.500000  0.000000  0.169155  1
  Ca  Ca5  1  0.000000  0.000000  0.326145  1
  Ca  Ca6  1  0.000000  0.000000  0.673855  1
  Ca  Ca7  1  0.500000  0.000000  0.830845  1
  Ca  Ca8  1  0.500000  0.500000  0.326145  1
  Ca  Ca9  1  0.000000  0.500000  0.169155  1
  Ca  Ca10  1  0.000000  0.500000  0.830845  1
  Ca  Ca11  1  0.500000  0.500000  0.673855  1
  I  I12  1  0.204308  0.195287  0.586255  1
  I  I13  1  0.285213  0.209901  0.087872  1
  I  I14  1  0.790099  0.285213  0.912128  1
  I  I15  1  0.304713  0.295692  0.413745  1
  I  I16  1  0.705353  0.211795  0.252652  1
  I  I17  1  0.711795  0.205353  0.747348  1
  I  I18  1  0.211795  0.294647  0.747348  1
  I  I19  1  0.205353  0.288205  0.252652  1
  I  I20  1  0.290099  0.214787  0.912128  1
  I  I21  1  0.804713  0.204308  0.413745  1
  I  I22  1  0.785213  0.290099  0.087872  1
  I  I23  1  0.704308  0.304713  0.586255  1
  I  I24  1  0.295692  0.695287  0.586255  1
  I  I25  1  0.214787  0.709901  0.087872  1
  I  I26  1  0.709901  0.785213  0.912128  1
  I  I27  1  0.195287  0.795692  0.413745  1
  I  I28  1  0.794647  0.711795  0.252652  1
  I  I29  1  0.788205  0.705353  0.747348  1
  I  I30  1  0.288205  0.794647  0.747348  1
  I  I31  1  0.294647  0.788205  0.252652  1
  I  I32  1  0.695287  0.704308  0.413745  1
  I  I33  1  0.209901  0.714787  0.912128  1
  I  I34  1  0.714787  0.790099  0.087872  1
  I  I35  1  0.795692  0.804713  0.586255  1
