# generated using pymatgen
data_InH5(NF)2
_symmetry_space_group_name_H-M   'P 1'
_cell_length_a   7.83749296
_cell_length_b   5.47927758
_cell_length_c   11.28559293
_cell_angle_alpha   90.00000000
_cell_angle_beta   128.65766773
_cell_angle_gamma   90.00000000
_symmetry_Int_Tables_number   1
_chemical_formula_structural   InH5(NF)2
_chemical_formula_sum   'In4 H20 N8 F8'
_cell_volume   378.45644261
_cell_formula_units_Z   4
loop_
 _symmetry_equiv_pos_site_id
 _symmetry_equiv_pos_as_xyz
  1  'x, y, z'
loop_
 _atom_site_type_symbol
 _atom_site_label
 _atom_site_symmetry_multiplicity
 _atom_site_fract_x
 _atom_site_fract_y
 _atom_site_fract_z
 _atom_site_occupancy
  In  In0  1  0.283062  0.561855  0.638958  1
  In  In1  1  0.283062  0.938145  0.138958  1
  In  In2  1  0.716938  0.438145  0.361042  1
  In  In3  1  0.716938  0.061855  0.861042  1
  H  H4  1  0.560797  0.790260  0.608835  1
  H  H5  1  0.560797  0.709740  0.108835  1
  H  H6  1  0.439203  0.209740  0.391165  1
  H  H7  1  0.439203  0.290260  0.891165  1
  H  H8  1  0.380697  0.993095  0.574334  1
  H  H9  1  0.380697  0.506905  0.074334  1
  H  H10  1  0.619303  0.006905  0.425666  1
  H  H11  1  0.619303  0.493095  0.925666  1
  H  H12  1  0.103460  0.977280  0.663955  1
  H  H13  1  0.103460  0.522720  0.163955  1
  H  H14  1  0.896540  0.022720  0.336045  1
  H  H15  1  0.896540  0.477280  0.836045  1
  H  H16  1  0.995099  0.741221  0.684784  1
  H  H17  1  0.995099  0.758779  0.184784  1
  H  H18  1  0.004901  0.258779  0.315216  1
  H  H19  1  0.004901  0.241221  0.815216  1
  H  H20  1  0.242645  0.844257  0.831325  1
  H  H21  1  0.242645  0.655743  0.331325  1
  H  H22  1  0.757355  0.155743  0.168675  1
  H  H23  1  0.757355  0.344257  0.668675  1
  N  N24  1  0.482432  0.856624  0.648934  1
  N  N25  1  0.482432  0.643376  0.148934  1
  N  N26  1  0.517568  0.143376  0.351066  1
  N  N27  1  0.517568  0.356624  0.851066  1
  N  N28  1  0.140525  0.810607  0.716865  1
  N  N29  1  0.140525  0.689393  0.216865  1
  N  N30  1  0.859475  0.189393  0.283135  1
  N  N31  1  0.859475  0.310607  0.783135  1
  F  F32  1  0.976831  0.695220  0.414840  1
  F  F33  1  0.976831  0.804780  0.914840  1
  F  F34  1  0.023169  0.304780  0.585160  1
  F  F35  1  0.023169  0.195220  0.085160  1
  F  F36  1  0.317695  0.338295  0.499803  1
  F  F37  1  0.317695  0.161705  0.999803  1
  F  F38  1  0.682305  0.661705  0.500197  1
  F  F39  1  0.682305  0.838295  0.000197  1
