# generated using pymatgen
data_Li4Mn3Co3(SnO8)2
_symmetry_space_group_name_H-M   'P 1'
_cell_length_a   5.80728144
_cell_length_b   5.84271296
_cell_length_c   9.67426832
_cell_angle_alpha   90.42822613
_cell_angle_beta   90.50990771
_cell_angle_gamma   119.17026245
_symmetry_Int_Tables_number   1
_chemical_formula_structural   Li4Mn3Co3(SnO8)2
_chemical_formula_sum   'Li4 Mn3 Co3 Sn2 O16'
_cell_volume   286.58271324
_cell_formula_units_Z   1
loop_
 _symmetry_equiv_pos_site_id
 _symmetry_equiv_pos_as_xyz
  1  'x, y, z'
loop_
 _atom_site_type_symbol
 _atom_site_label
 _atom_site_symmetry_multiplicity
 _atom_site_fract_x
 _atom_site_fract_y
 _atom_site_fract_z
 _atom_site_occupancy
  Li  Li0  1  0.334401  0.672301  0.100336  1
  Li  Li1  1  0.994941  0.002384  0.004898  1
  Li  Li2  1  0.998113  0.002232  0.506257  1
  Li  Li3  1  0.668096  0.332521  0.609258  1
  Mn  Mn4  1  0.167878  0.830141  0.785230  1
  Mn  Mn5  1  0.830334  0.659594  0.283504  1
  Mn  Mn6  1  0.337834  0.171056  0.284621  1
  Co  Co7  1  0.660490  0.830723  0.785315  1
  Co  Co8  1  0.168913  0.339788  0.785401  1
  Co  Co9  1  0.829336  0.169109  0.284918  1
  Sn  Sn10  1  0.331699  0.659172  0.511185  1
  Sn  Sn11  1  0.667701  0.332021  0.004918  1
  O  O12  1  0.683109  0.840186  0.396103  1
  O  O13  1  0.482777  0.516406  0.671196  1
  O  O14  1  0.334224  0.667591  0.886668  1
  O  O15  1  0.997028  0.000400  0.693388  1
  O  O16  1  0.994129  0.992841  0.192658  1
  O  O17  1  0.155875  0.313371  0.399483  1
  O  O18  1  0.481343  0.964951  0.668626  1
  O  O19  1  0.033733  0.517460  0.670496  1
  O  O20  1  0.844511  0.159342  0.895148  1
  O  O21  1  0.141755  0.817949  0.403272  1
  O  O22  1  0.967414  0.479584  0.169091  1
  O  O23  1  0.523658  0.036334  0.164043  1
  O  O24  1  0.671586  0.341947  0.388013  1
  O  O25  1  0.847626  0.686539  0.896357  1
  O  O26  1  0.539127  0.509632  0.154485  1
  O  O27  1  0.312666  0.154724  0.897294  1
