# generated using pymatgen
data_LiFe2(BO3)2
_symmetry_space_group_name_H-M   'P 1'
_cell_length_a   5.24504997
_cell_length_b   5.27966946
_cell_length_c   10.13586427
_cell_angle_alpha   91.37103061
_cell_angle_beta   90.04314420
_cell_angle_gamma   119.57764796
_symmetry_Int_Tables_number   1
_chemical_formula_structural   LiFe2(BO3)2
_chemical_formula_sum   'Li2 Fe4 B4 O12'
_cell_volume   244.01173461
_cell_formula_units_Z   2
loop_
 _symmetry_equiv_pos_site_id
 _symmetry_equiv_pos_as_xyz
  1  'x, y, z'
loop_
 _atom_site_type_symbol
 _atom_site_label
 _atom_site_symmetry_multiplicity
 _atom_site_fract_x
 _atom_site_fract_y
 _atom_site_fract_z
 _atom_site_occupancy
  Li  Li0  1  0.331186  0.348646  0.843532  1
  Li  Li1  1  0.664558  0.660568  0.121877  1
  Fe  Fe2  1  0.322804  0.979403  0.621074  1
  Fe  Fe3  1  0.993483  0.679107  0.873086  1
  Fe  Fe4  1  0.003038  0.327170  0.120501  1
  Fe  Fe5  1  0.668144  0.011977  0.367943  1
  B  B6  1  0.667982  0.005917  0.870877  1
  B  B7  1  0.991425  0.325510  0.623653  1
  B  B8  1  0.997868  0.667012  0.367711  1
  B  B9  1  0.332709  0.997821  0.120542  1
  O  O10  1  0.727539  0.107885  0.566851  1
  O  O11  1  0.924691  0.260020  0.905199  1
  O  O12  1  0.425389  0.023194  0.820861  1
  O  O13  1  0.014080  0.590770  0.660497  1
  O  O14  1  0.352931  0.264657  0.109490  1
  O  O15  1  0.217638  0.273221  0.646671  1
  O  O16  1  0.772378  0.719282  0.345514  1
  O  O17  1  0.644945  0.737322  0.887125  1
  O  O18  1  0.978476  0.402896  0.332086  1
  O  O19  1  0.575514  0.976737  0.167395  1
  O  O20  1  0.076860  0.740243  0.084631  1
  O  O21  1  0.264007  0.885849  0.423642  1
