# generated using pymatgen
data_Mn2OF3
_symmetry_space_group_name_H-M   'P 1'
_cell_length_a   4.88690039
_cell_length_b   4.88690039
_cell_length_c   9.49303199
_cell_angle_alpha   90.00000000
_cell_angle_beta   90.00000000
_cell_angle_gamma   92.65123016
_symmetry_Int_Tables_number   1
_chemical_formula_structural   Mn2OF3
_chemical_formula_sum   'Mn6 O3 F9'
_cell_volume   226.46797884
_cell_formula_units_Z   3
loop_
 _symmetry_equiv_pos_site_id
 _symmetry_equiv_pos_as_xyz
  1  'x, y, z'
loop_
 _atom_site_type_symbol
 _atom_site_label
 _atom_site_symmetry_multiplicity
 _atom_site_fract_x
 _atom_site_fract_y
 _atom_site_fract_z
 _atom_site_occupancy
  Mn  Mn0  1  0.957501  0.957501  0.000000  1
  Mn  Mn1  1  0.028939  0.028939  0.333027  1
  Mn  Mn2  1  0.028939  0.028939  0.666973  1
  Mn  Mn3  1  0.492130  0.492130  0.832852  1
  Mn  Mn4  1  0.492130  0.492130  0.167148  1
  Mn  Mn5  1  0.498963  0.498963  0.500000  1
  O  O6  1  0.324841  0.324841  0.333936  1
  O  O7  1  0.324841  0.324841  0.666064  1
  O  O8  1  0.660274  0.660274  0.000000  1
  F  F9  1  0.788615  0.195268  0.167642  1
  F  F10  1  0.821272  0.212042  0.500000  1
  F  F11  1  0.788615  0.195268  0.832358  1
  F  F12  1  0.275045  0.275045  0.000000  1
  F  F13  1  0.707659  0.707659  0.339910  1
  F  F14  1  0.707659  0.707659  0.660090  1
  F  F15  1  0.195268  0.788615  0.167642  1
  F  F16  1  0.212042  0.821272  0.500000  1
  F  F17  1  0.195268  0.788615  0.832358  1
