# generated using pymatgen
data_Hg(SbO3)2
_symmetry_space_group_name_H-M   'P 1'
_cell_length_a   4.92532713
_cell_length_b   4.92532713
_cell_length_c   9.80720441
_cell_angle_alpha   90.00000000
_cell_angle_beta   90.00000000
_cell_angle_gamma   90.00000000
_symmetry_Int_Tables_number   1
_chemical_formula_structural   Hg(SbO3)2
_chemical_formula_sum   'Hg2 Sb4 O12'
_cell_volume   237.91147459
_cell_formula_units_Z   2
loop_
 _symmetry_equiv_pos_site_id
 _symmetry_equiv_pos_as_xyz
  1  'x, y, z'
loop_
 _atom_site_type_symbol
 _atom_site_label
 _atom_site_symmetry_multiplicity
 _atom_site_fract_x
 _atom_site_fract_y
 _atom_site_fract_z
 _atom_site_occupancy
  Hg  Hg0  1  0.000000  0.000000  0.000000  1
  Hg  Hg1  1  0.500000  0.500000  0.500000  1
  Sb  Sb2  1  0.000000  0.000000  0.331489  1
  Sb  Sb3  1  0.000000  0.000000  0.668511  1
  Sb  Sb4  1  0.500000  0.500000  0.168511  1
  Sb  Sb5  1  0.500000  0.500000  0.831489  1
  O  O6  1  0.174710  0.825290  0.500000  1
  O  O7  1  0.209904  0.790096  0.812738  1
  O  O8  1  0.209904  0.790096  0.187262  1
  O  O9  1  0.290096  0.290096  0.312738  1
  O  O10  1  0.290096  0.290096  0.687262  1
  O  O11  1  0.325290  0.325290  0.000000  1
  O  O12  1  0.674710  0.674710  0.000000  1
  O  O13  1  0.709904  0.709904  0.312738  1
  O  O14  1  0.709904  0.709904  0.687262  1
  O  O15  1  0.790096  0.209904  0.187262  1
  O  O16  1  0.790096  0.209904  0.812738  1
  O  O17  1  0.825290  0.174710  0.500000  1
