# generated using pymatgen
data_Li6Mn5Ni3O16
_symmetry_space_group_name_H-M   'P 1'
_cell_length_a   5.82163519
_cell_length_b   5.82163519
_cell_length_c   9.43879433
_cell_angle_alpha   88.88539818
_cell_angle_beta   91.11460182
_cell_angle_gamma   120.40620499
_symmetry_Int_Tables_number   1
_chemical_formula_structural   Li6Mn5Ni3O16
_chemical_formula_sum   'Li6 Mn5 Ni3 O16'
_cell_volume   275.82634819
_cell_formula_units_Z   1
loop_
 _symmetry_equiv_pos_site_id
 _symmetry_equiv_pos_as_xyz
  1  'x, y, z'
loop_
 _atom_site_type_symbol
 _atom_site_label
 _atom_site_symmetry_multiplicity
 _atom_site_fract_x
 _atom_site_fract_y
 _atom_site_fract_z
 _atom_site_occupancy
  Li  Li0  1  0.825668  0.174332  0.549465  1
  Li  Li1  1  0.347684  0.166198  0.546881  1
  Li  Li2  1  0.833802  0.652316  0.546881  1
  Li  Li3  1  0.173131  0.335371  0.059831  1
  Li  Li4  1  0.664629  0.826869  0.059831  1
  Li  Li5  1  0.164302  0.835698  0.059266  1
  Mn  Mn6  1  0.827903  0.172097  0.285280  1
  Mn  Mn7  1  0.659917  0.340083  0.015218  1
  Mn  Mn8  1  0.168388  0.336392  0.785411  1
  Mn  Mn9  1  0.663608  0.831612  0.785411  1
  Mn  Mn10  1  0.329426  0.670574  0.510348  1
  Ni  Ni11  1  0.334922  0.167708  0.287634  1
  Ni  Ni12  1  0.832292  0.665078  0.287634  1
  Ni  Ni13  1  0.168171  0.831829  0.787114  1
  O  O14  1  0.838066  0.161934  0.896831  1
  O  O15  1  0.527387  0.035030  0.148072  1
  O  O16  1  0.324670  0.171931  0.907739  1
  O  O17  1  0.674687  0.325313  0.403226  1
  O  O18  1  0.964970  0.472613  0.148072  1
  O  O19  1  0.521319  0.478681  0.144269  1
  O  O20  1  0.155637  0.335859  0.406651  1
  O  O21  1  0.828069  0.675330  0.907739  1
  O  O22  1  0.485184  0.514816  0.661739  1
  O  O23  1  0.664141  0.844363  0.406651  1
  O  O24  1  0.343466  0.656534  0.896687  1
  O  O25  1  0.039004  0.505822  0.654184  1
  O  O26  1  0.494178  0.960996  0.654184  1
  O  O27  1  0.164635  0.835365  0.419277  1
  O  O28  1  0.991560  0.008440  0.678950  1
  O  O29  1  0.988626  0.011374  0.179492  1
