# generated using pymatgen
data_Li4Ti3Mn3(NiO8)2
_symmetry_space_group_name_H-M   'P 1'
_cell_length_a   5.85318525
_cell_length_b   5.85318525
_cell_length_c   9.64504526
_cell_angle_alpha   89.87467211
_cell_angle_beta   90.12532789
_cell_angle_gamma   119.86163989
_symmetry_Int_Tables_number   1
_chemical_formula_structural   Li4Ti3Mn3(NiO8)2
_chemical_formula_sum   'Li4 Ti3 Mn3 Ni2 O16'
_cell_volume   286.56415404
_cell_formula_units_Z   1
loop_
 _symmetry_equiv_pos_site_id
 _symmetry_equiv_pos_as_xyz
  1  'x, y, z'
loop_
 _atom_site_type_symbol
 _atom_site_label
 _atom_site_symmetry_multiplicity
 _atom_site_fract_x
 _atom_site_fract_y
 _atom_site_fract_z
 _atom_site_occupancy
  Li  Li0  1  0.330795  0.669205  0.885317  1
  Li  Li1  1  0.003938  0.996062  0.997765  1
  Li  Li2  1  0.003681  0.996319  0.499595  1
  Li  Li3  1  0.663948  0.336052  0.387738  1
  Ti  Ti4  1  0.662014  0.831672  0.214833  1
  Ti  Ti5  1  0.168328  0.337986  0.214833  1
  Ti  Ti6  1  0.830223  0.169777  0.714005  1
  Mn  Mn7  1  0.169282  0.830718  0.215166  1
  Mn  Mn8  1  0.831442  0.662659  0.715141  1
  Mn  Mn9  1  0.337341  0.168558  0.715141  1
  Ni  Ni10  1  0.333625  0.666375  0.490289  1
  Ni  Ni11  1  0.666503  0.333497  0.987636  1
  O  O12  1  0.681901  0.839773  0.607045  1
  O  O13  1  0.481499  0.518501  0.331245  1
  O  O14  1  0.331192  0.668808  0.103909  1
  O  O15  1  0.004142  0.995858  0.314264  1
  O  O16  1  0.004097  0.995903  0.812356  1
  O  O17  1  0.160227  0.318099  0.607045  1
  O  O18  1  0.479312  0.964748  0.332808  1
  O  O19  1  0.035252  0.520688  0.332808  1
  O  O20  1  0.840127  0.159873  0.105777  1
  O  O21  1  0.159577  0.840423  0.609159  1
  O  O22  1  0.963868  0.484769  0.831231  1
  O  O23  1  0.515231  0.036132  0.831231  1
  O  O24  1  0.662831  0.337169  0.606055  1
  O  O25  1  0.842722  0.680970  0.107698  1
  O  O26  1  0.517926  0.482074  0.829990  1
  O  O27  1  0.319030  0.157278  0.107698  1
