# generated using pymatgen
data_Na5Ni2P2(CO7)2
_symmetry_space_group_name_H-M   'P 1'
_cell_length_a   10.16022408
_cell_length_b   6.61901904
_cell_length_c   10.37387773
_cell_angle_alpha   90.00000000
_cell_angle_beta   119.17575612
_cell_angle_gamma   90.00000000
_symmetry_Int_Tables_number   1
_chemical_formula_structural   Na5Ni2P2(CO7)2
_chemical_formula_sum   'Na10 Ni4 P4 C4 O28'
_cell_volume   609.13867007
_cell_formula_units_Z   2
loop_
 _symmetry_equiv_pos_site_id
 _symmetry_equiv_pos_as_xyz
  1  'x, y, z'
loop_
 _atom_site_type_symbol
 _atom_site_label
 _atom_site_symmetry_multiplicity
 _atom_site_fract_x
 _atom_site_fract_y
 _atom_site_fract_z
 _atom_site_occupancy
  Na  Na0  1  0.730092  0.486309  0.732420  1
  Na  Na1  1  0.730092  0.013691  0.732420  1
  Na  Na2  1  0.253421  0.993827  0.742744  1
  Na  Na3  1  0.253421  0.506173  0.742744  1
  Na  Na4  1  0.084055  0.750000  0.930606  1
  Na  Na5  1  0.915945  0.250000  0.069394  1
  Na  Na6  1  0.746579  0.006173  0.257256  1
  Na  Na7  1  0.746579  0.493827  0.257256  1
  Na  Na8  1  0.269908  0.986309  0.267580  1
  Na  Na9  1  0.269908  0.513691  0.267580  1
  Ni  Ni10  1  0.651503  0.750000  0.935779  1
  Ni  Ni11  1  0.349440  0.250000  0.563285  1
  Ni  Ni12  1  0.650560  0.750000  0.436715  1
  Ni  Ni13  1  0.348497  0.250000  0.064221  1
  P  P14  1  0.581158  0.250000  0.932825  1
  P  P15  1  0.420002  0.750000  0.568731  1
  P  P16  1  0.579998  0.250000  0.431269  1
  P  P17  1  0.418842  0.750000  0.067175  1
  C  C18  1  0.065927  0.250000  0.892306  1
  C  C19  1  0.069573  0.250000  0.389641  1
  C  C20  1  0.930427  0.750000  0.610359  1
  C  C21  1  0.934073  0.750000  0.107694  1
  O  O22  1  0.871740  0.750000  0.963819  1
  O  O23  1  0.680085  0.064443  0.945363  1
  O  O24  1  0.680085  0.435557  0.945363  1
  O  O25  1  0.571100  0.750000  0.713698  1
  O  O26  1  0.545222  0.250000  0.563895  1
  O  O27  1  0.451562  0.750000  0.935597  1
  O  O28  1  0.430380  0.250000  0.786659  1
  O  O29  1  0.324739  0.938401  0.554351  1
  O  O30  1  0.324739  0.561599  0.554351  1
  O  O31  1  0.158251  0.250000  0.840287  1
  O  O32  1  0.162491  0.250000  0.336858  1
  O  O33  1  0.132990  0.250000  0.532595  1
  O  O34  1  0.071984  0.750000  0.695133  1
  O  O35  1  0.076715  0.750000  0.186455  1
  O  O36  1  0.923285  0.250000  0.813545  1
  O  O37  1  0.928016  0.250000  0.304867  1
  O  O38  1  0.867010  0.750000  0.467405  1
  O  O39  1  0.837509  0.750000  0.663142  1
  O  O40  1  0.841749  0.750000  0.159713  1
  O  O41  1  0.675261  0.061599  0.445649  1
  O  O42  1  0.675261  0.438401  0.445649  1
  O  O43  1  0.569620  0.750000  0.213341  1
  O  O44  1  0.548438  0.250000  0.064403  1
  O  O45  1  0.454778  0.750000  0.436105  1
  O  O46  1  0.428900  0.250000  0.286302  1
  O  O47  1  0.319915  0.564443  0.054637  1
  O  O48  1  0.319915  0.935557  0.054637  1
  O  O49  1  0.128260  0.250000  0.036181  1
