# generated using pymatgen
data_Li2CrSiO4
_symmetry_space_group_name_H-M   'P 1'
_cell_length_a   5.08006009
_cell_length_b   6.64017394
_cell_length_c   10.74434838
_cell_angle_alpha   90.00000000
_cell_angle_beta   90.00000000
_cell_angle_gamma   90.00000000
_symmetry_Int_Tables_number   1
_chemical_formula_structural   Li2CrSiO4
_chemical_formula_sum   'Li8 Cr4 Si4 O16'
_cell_volume   362.43354533
_cell_formula_units_Z   4
loop_
 _symmetry_equiv_pos_site_id
 _symmetry_equiv_pos_as_xyz
  1  'x, y, z'
loop_
 _atom_site_type_symbol
 _atom_site_label
 _atom_site_symmetry_multiplicity
 _atom_site_fract_x
 _atom_site_fract_y
 _atom_site_fract_z
 _atom_site_occupancy
  Li  Li0  1  0.293043  0.869582  0.077214  1
  Li  Li1  1  0.697985  0.119517  0.163186  1
  Li  Li2  1  0.197985  0.619517  0.336814  1
  Li  Li3  1  0.793043  0.369582  0.422786  1
  Li  Li4  1  0.206957  0.869582  0.577214  1
  Li  Li5  1  0.802015  0.119517  0.663186  1
  Li  Li6  1  0.302015  0.619517  0.836814  1
  Li  Li7  1  0.706957  0.369582  0.922786  1
  Cr  Cr8  1  0.703846  0.616624  0.160199  1
  Cr  Cr9  1  0.203846  0.116624  0.339801  1
  Cr  Cr10  1  0.796154  0.616624  0.660199  1
  Cr  Cr11  1  0.296154  0.116624  0.839801  1
  Si  Si12  1  0.195186  0.366259  0.083462  1
  Si  Si13  1  0.695186  0.866259  0.416538  1
  Si  Si14  1  0.304814  0.366259  0.583462  1
  Si  Si15  1  0.804814  0.866259  0.916538  1
  O  O16  1  0.705127  0.875171  0.062937  1
  O  O17  1  0.869942  0.353937  0.089889  1
  O  O18  1  0.291494  0.577710  0.153010  1
  O  O19  1  0.314862  0.163459  0.151554  1
  O  O20  1  0.814862  0.663459  0.348446  1
  O  O21  1  0.791494  0.077710  0.346990  1
  O  O22  1  0.369942  0.853937  0.410111  1
  O  O23  1  0.205127  0.375171  0.437063  1
  O  O24  1  0.794873  0.875171  0.562937  1
  O  O25  1  0.630058  0.353937  0.589889  1
  O  O26  1  0.208506  0.577710  0.653010  1
  O  O27  1  0.185138  0.163459  0.651554  1
  O  O28  1  0.685138  0.663459  0.848446  1
  O  O29  1  0.708506  0.077710  0.846990  1
  O  O30  1  0.130058  0.853937  0.910111  1
  O  O31  1  0.294873  0.375171  0.937063  1
