# generated using pymatgen
data_Li2V(Si2O5)3
_symmetry_space_group_name_H-M   'P 1'
_cell_length_a   6.87099585
_cell_length_b   12.68773185
_cell_length_c   7.44627292
_cell_angle_alpha   90.00000000
_cell_angle_beta   110.75411581
_cell_angle_gamma   90.00000000
_symmetry_Int_Tables_number   1
_chemical_formula_structural   Li2V(Si2O5)3
_chemical_formula_sum   'Li4 V2 Si12 O30'
_cell_volume   607.02309675
_cell_formula_units_Z   2
loop_
 _symmetry_equiv_pos_site_id
 _symmetry_equiv_pos_as_xyz
  1  'x, y, z'
loop_
 _atom_site_type_symbol
 _atom_site_label
 _atom_site_symmetry_multiplicity
 _atom_site_fract_x
 _atom_site_fract_y
 _atom_site_fract_z
 _atom_site_occupancy
  Li  Li0  1  0.142299  0.661430  0.458555  1
  Li  Li1  1  0.168253  0.835454  0.158881  1
  Li  Li2  1  0.831747  0.335454  0.841119  1
  Li  Li3  1  0.857701  0.161430  0.541445  1
  V  V4  1  0.261374  0.249650  0.757034  1
  V  V5  1  0.738626  0.749650  0.242966  1
  Si  Si6  1  0.031276  0.332938  0.308078  1
  Si  Si7  1  0.007428  0.155802  0.023832  1
  Si  Si8  1  0.299562  0.487815  0.916415  1
  Si  Si9  1  0.309304  0.990150  0.704531  1
  Si  Si10  1  0.531144  0.657246  0.800841  1
  Si  Si11  1  0.491106  0.334043  0.477311  1
  Si  Si12  1  0.508894  0.834043  0.522689  1
  Si  Si13  1  0.468856  0.157246  0.199159  1
  Si  Si14  1  0.690696  0.490150  0.295469  1
  Si  Si15  1  0.700438  0.987815  0.083585  1
  Si  Si16  1  0.992572  0.655802  0.976168  1
  Si  Si17  1  0.968724  0.832938  0.691922  1
  O  O18  1  0.006926  0.192021  0.814608  1
  O  O19  1  0.072827  0.764421  0.894256  1
  O  O20  1  0.156109  0.560101  0.001342  1
  O  O21  1  0.037906  0.264962  0.491350  1
  O  O22  1  0.088946  0.946345  0.714937  1
  O  O23  1  0.169273  0.383173  0.819418  1
  O  O24  1  0.301290  0.115894  0.670825  1
  O  O25  1  0.265952  0.363800  0.317908  1
  O  O26  1  0.453803  0.223949  0.011401  1
  O  O27  1  0.361312  0.559283  0.757257  1
  O  O28  1  0.233469  0.116508  0.177544  1
  O  O29  1  0.484946  0.958742  0.909546  1
  O  O30  1  0.348663  0.929464  0.524690  1
  O  O31  1  0.498737  0.316333  0.694779  1
  O  O32  1  0.427687  0.724048  0.597111  1
  O  O33  1  0.572313  0.224048  0.402889  1
  O  O34  1  0.501263  0.816333  0.305221  1
  O  O35  1  0.651337  0.429464  0.475310  1
  O  O36  1  0.515054  0.458742  0.090454  1
  O  O37  1  0.766531  0.616508  0.822456  1
  O  O38  1  0.638688  0.059283  0.242743  1
  O  O39  1  0.546197  0.723949  0.988599  1
  O  O40  1  0.734048  0.863800  0.682092  1
  O  O41  1  0.698710  0.615894  0.329175  1
  O  O42  1  0.830727  0.883173  0.180582  1
  O  O43  1  0.911054  0.446345  0.285063  1
  O  O44  1  0.962094  0.764962  0.508650  1
  O  O45  1  0.843891  0.060101  0.998658  1
  O  O46  1  0.927173  0.264421  0.105744  1
  O  O47  1  0.993074  0.692021  0.185392  1
