# generated using pymatgen
data_Li2FeF4
_symmetry_space_group_name_H-M   'P 1'
_cell_length_a   8.90051348
_cell_length_b   8.90051348
_cell_length_c   8.90051348
_cell_angle_alpha   107.73372720
_cell_angle_beta   107.73372720
_cell_angle_gamma   107.73372720
_symmetry_Int_Tables_number   1
_chemical_formula_structural   Li2FeF4
_chemical_formula_sum   'Li12 Fe6 F24'
_cell_volume   575.04875879
_cell_formula_units_Z   6
loop_
 _symmetry_equiv_pos_site_id
 _symmetry_equiv_pos_as_xyz
  1  'x, y, z'
loop_
 _atom_site_type_symbol
 _atom_site_label
 _atom_site_symmetry_multiplicity
 _atom_site_fract_x
 _atom_site_fract_y
 _atom_site_fract_z
 _atom_site_occupancy
  Li  Li0  1  0.297106  0.918593  0.048869  1
  Li  Li1  1  0.951131  0.702894  0.081407  1
  Li  Li2  1  0.365229  0.638661  0.230448  1
  Li  Li3  1  0.081407  0.951131  0.702894  1
  Li  Li4  1  0.769552  0.634771  0.361339  1
  Li  Li5  1  0.361339  0.769552  0.634771  1
  Li  Li6  1  0.638661  0.230448  0.365229  1
  Li  Li7  1  0.230448  0.365229  0.638661  1
  Li  Li8  1  0.918593  0.048869  0.297106  1
  Li  Li9  1  0.634771  0.361339  0.769552  1
  Li  Li10  1  0.048869  0.297106  0.918593  1
  Li  Li11  1  0.702894  0.081407  0.951131  1
  Fe  Fe12  1  0.554731  0.709017  0.005883  1
  Fe  Fe13  1  0.290983  0.994117  0.445269  1
  Fe  Fe14  1  0.994117  0.445269  0.290983  1
  Fe  Fe15  1  0.005883  0.554731  0.709017  1
  Fe  Fe16  1  0.709017  0.005883  0.554731  1
  Fe  Fe17  1  0.445269  0.290983  0.994117  1
  F  F18  1  0.809627  0.819865  0.110225  1
  F  F19  1  0.370100  0.739306  0.068765  1
  F  F20  1  0.180135  0.889775  0.190373  1
  F  F21  1  0.260694  0.931235  0.629900  1
  F  F22  1  0.450515  0.821152  0.464586  1
  F  F23  1  0.140850  0.467645  0.151897  1
  F  F24  1  0.848103  0.859150  0.532355  1
  F  F25  1  0.931235  0.629900  0.260694  1
  F  F26  1  0.535414  0.549485  0.178848  1
  F  F27  1  0.178848  0.535414  0.549485  1
  F  F28  1  0.889775  0.190373  0.180135  1
  F  F29  1  0.532355  0.848103  0.859150  1
  F  F30  1  0.467645  0.151897  0.140850  1
  F  F31  1  0.110225  0.809627  0.819865  1
  F  F32  1  0.821152  0.464586  0.450515  1
  F  F33  1  0.464586  0.450515  0.821152  1
  F  F34  1  0.068765  0.370100  0.739306  1
  F  F35  1  0.151897  0.140850  0.467645  1
  F  F36  1  0.859150  0.532355  0.848103  1
  F  F37  1  0.549485  0.178848  0.535414  1
  F  F38  1  0.739306  0.068765  0.370100  1
  F  F39  1  0.819865  0.110225  0.809627  1
  F  F40  1  0.629900  0.260694  0.931235  1
  F  F41  1  0.190373  0.180135  0.889775  1
