# generated using pymatgen
data_Gd3AsO7
_symmetry_space_group_name_H-M   'P 1'
_cell_length_a   7.35617914
_cell_length_b   7.37865964
_cell_length_c   10.54630679
_cell_angle_alpha   90.00000000
_cell_angle_beta   90.00000000
_cell_angle_gamma   90.00000000
_symmetry_Int_Tables_number   1
_chemical_formula_structural   Gd3AsO7
_chemical_formula_sum   'Gd12 As4 O28'
_cell_volume   572.44026663
_cell_formula_units_Z   4
loop_
 _symmetry_equiv_pos_site_id
 _symmetry_equiv_pos_as_xyz
  1  'x, y, z'
loop_
 _atom_site_type_symbol
 _atom_site_label
 _atom_site_symmetry_multiplicity
 _atom_site_fract_x
 _atom_site_fract_y
 _atom_site_fract_z
 _atom_site_occupancy
  Gd  Gd0  1  0.272646  0.003706  0.750000  1
  Gd  Gd1  1  0.454365  0.253463  0.026026  1
  Gd  Gd2  1  0.454365  0.253463  0.473974  1
  Gd  Gd3  1  0.954365  0.246537  0.526026  1
  Gd  Gd4  1  0.954365  0.246537  0.973974  1
  Gd  Gd5  1  0.772646  0.496294  0.250000  1
  Gd  Gd6  1  0.227354  0.503706  0.750000  1
  Gd  Gd7  1  0.045635  0.753463  0.026026  1
  Gd  Gd8  1  0.045635  0.753463  0.473974  1
  Gd  Gd9  1  0.545635  0.746537  0.526026  1
  Gd  Gd10  1  0.545635  0.746537  0.973974  1
  Gd  Gd11  1  0.727354  0.996294  0.250000  1
  As  As12  1  0.250846  0.001996  0.250000  1
  As  As13  1  0.750846  0.498004  0.750000  1
  As  As14  1  0.249154  0.501996  0.250000  1
  As  As15  1  0.749154  0.998004  0.750000  1
  O  O16  1  0.565756  0.031737  0.628431  1
  O  O17  1  0.565756  0.031737  0.871569  1
  O  O18  1  0.079602  0.036544  0.124610  1
  O  O19  1  0.079602  0.036544  0.375390  1
  O  O20  1  0.827484  0.247461  0.750000  1
  O  O21  1  0.229069  0.250743  0.617198  1
  O  O22  1  0.229069  0.250743  0.882802  1
  O  O23  1  0.729069  0.249257  0.117198  1
  O  O24  1  0.729069  0.249257  0.382802  1
  O  O25  1  0.327484  0.252539  0.250000  1
  O  O26  1  0.579602  0.463456  0.624610  1
  O  O27  1  0.579602  0.463456  0.875390  1
  O  O28  1  0.065756  0.468263  0.128431  1
  O  O29  1  0.065756  0.468263  0.371569  1
  O  O30  1  0.934244  0.531737  0.628431  1
  O  O31  1  0.934244  0.531737  0.871569  1
  O  O32  1  0.420398  0.536544  0.124610  1
  O  O33  1  0.420398  0.536544  0.375390  1
  O  O34  1  0.672516  0.747461  0.750000  1
  O  O35  1  0.270931  0.750743  0.617198  1
  O  O36  1  0.270931  0.750743  0.882802  1
  O  O37  1  0.770931  0.749257  0.117198  1
  O  O38  1  0.770931  0.749257  0.382802  1
  O  O39  1  0.172516  0.752539  0.250000  1
  O  O40  1  0.920398  0.963456  0.624610  1
  O  O41  1  0.920398  0.963456  0.875390  1
  O  O42  1  0.434244  0.968263  0.128431  1
  O  O43  1  0.434244  0.968263  0.371569  1
