# generated using pymatgen
data_Li4Ti3V3(TeO8)2
_symmetry_space_group_name_H-M   'P 1'
_cell_length_a   6.09259770
_cell_length_b   6.09259770
_cell_length_c   10.27539529
_cell_angle_alpha   89.93650999
_cell_angle_beta   90.06349001
_cell_angle_gamma   121.83243634
_symmetry_Int_Tables_number   1
_chemical_formula_structural   Li4Ti3V3(TeO8)2
_chemical_formula_sum   'Li4 Ti3 V3 Te2 O16'
_cell_volume   324.05203348
_cell_formula_units_Z   1
loop_
 _symmetry_equiv_pos_site_id
 _symmetry_equiv_pos_as_xyz
  1  'x, y, z'
loop_
 _atom_site_type_symbol
 _atom_site_label
 _atom_site_symmetry_multiplicity
 _atom_site_fract_x
 _atom_site_fract_y
 _atom_site_fract_z
 _atom_site_occupancy
  Li  Li0  1  0.663072  0.336928  0.903021  1
  Li  Li1  1  0.005895  0.994105  0.986401  1
  Li  Li2  1  0.001480  0.998520  0.494932  1
  Li  Li3  1  0.337651  0.662349  0.399644  1
  Ti  Ti4  1  0.344314  0.157994  0.221469  1
  Ti  Ti5  1  0.842006  0.655686  0.221469  1
  Ti  Ti6  1  0.177028  0.822972  0.730757  1
  V  V7  1  0.831821  0.168179  0.208761  1
  V  V8  1  0.178961  0.350160  0.715402  1
  V  V9  1  0.649840  0.821039  0.715402  1
  Te  Te10  1  0.670143  0.329857  0.510917  1
  Te  Te11  1  0.345372  0.654628  0.995771  1
  O  O12  1  0.335210  0.166447  0.600688  1
  O  O13  1  0.515827  0.484173  0.321582  1
  O  O14  1  0.659951  0.340049  0.110014  1
  O  O15  1  0.001694  0.998306  0.311973  1
  O  O16  1  0.007384  0.992616  0.802465  1
  O  O17  1  0.833553  0.664790  0.600688  1
  O  O18  1  0.501906  0.014624  0.315013  1
  O  O19  1  0.985376  0.498094  0.315013  1
  O  O20  1  0.143867  0.856133  0.111187  1
  O  O21  1  0.839655  0.160345  0.598109  1
  O  O22  1  0.019997  0.520324  0.832118  1
  O  O23  1  0.479676  0.980003  0.832118  1
  O  O24  1  0.317637  0.682363  0.605712  1
  O  O25  1  0.165656  0.314425  0.095688  1
  O  O26  1  0.479752  0.520248  0.856847  1
  O  O27  1  0.685575  0.834344  0.095688  1
