# generated using pymatgen
data_Li2Cr3P9O28
_symmetry_space_group_name_H-M   'P 1'
_cell_length_a   7.07105725
_cell_length_b   9.04343681
_cell_length_c   9.23014408
_cell_angle_alpha   111.64576545
_cell_angle_beta   109.83610183
_cell_angle_gamma   99.27593570
_symmetry_Int_Tables_number   1
_chemical_formula_structural   Li2Cr3P9O28
_chemical_formula_sum   'Li2 Cr3 P9 O28'
_cell_volume   487.60078153
_cell_formula_units_Z   1
loop_
 _symmetry_equiv_pos_site_id
 _symmetry_equiv_pos_as_xyz
  1  'x, y, z'
loop_
 _atom_site_type_symbol
 _atom_site_label
 _atom_site_symmetry_multiplicity
 _atom_site_fract_x
 _atom_site_fract_y
 _atom_site_fract_z
 _atom_site_occupancy
  Li  Li0  1  0.704801  0.956658  0.221640  1
  Li  Li1  1  0.295199  0.043342  0.778360  1
  Cr  Cr2  1  0.500000  0.500000  0.000000  1
  Cr  Cr3  1  0.242621  0.987430  0.243410  1
  Cr  Cr4  1  0.757379  0.012570  0.756590  1
  P  P5  1  0.306664  0.753514  0.447492  1
  P  P6  1  0.789517  0.761263  0.931270  1
  P  P7  1  0.686756  0.700260  0.417731  1
  P  P8  1  0.155513  0.679000  0.895088  1
  P  P9  1  0.000000  0.500000  0.500000  1
  P  P10  1  0.313244  0.299740  0.582269  1
  P  P11  1  0.844487  0.321000  0.104912  1
  P  P12  1  0.693336  0.246486  0.552508  1
  P  P13  1  0.210483  0.238737  0.068730  1
  O  O14  1  0.423495  0.910477  0.624441  1
  O  O15  1  0.922403  0.908033  0.115468  1
  O  O16  1  0.286792  0.862983  0.026541  1
  O  O17  1  0.811794  0.881436  0.554576  1
  O  O18  1  0.735091  0.812664  0.788507  1
  O  O19  1  0.229460  0.791055  0.295932  1
  O  O20  1  0.643024  0.693656  0.242125  1
  O  O21  1  0.118942  0.663994  0.709458  1
  O  O22  1  0.589010  0.659339  0.919801  1
  O  O23  1  0.112055  0.631851  0.436310  1
  O  O24  1  0.461059  0.643209  0.423869  1
  O  O25  1  0.925682  0.638331  0.892974  1
  O  O26  1  0.230711  0.546473  0.933681  1
  O  O27  1  0.778646  0.563989  0.453710  1
  O  O28  1  0.769289  0.453527  0.066319  1
  O  O29  1  0.221354  0.436011  0.546290  1
  O  O30  1  0.538941  0.356791  0.576131  1
  O  O31  1  0.074318  0.361669  0.107026  1
  O  O32  1  0.410990  0.340661  0.080199  1
  O  O33  1  0.887945  0.368149  0.563690  1
  O  O34  1  0.356976  0.306344  0.757875  1
  O  O35  1  0.881058  0.336006  0.290542  1
  O  O36  1  0.264909  0.187336  0.211493  1
  O  O37  1  0.770540  0.208945  0.704068  1
  O  O38  1  0.713208  0.137017  0.973459  1
  O  O39  1  0.188206  0.118564  0.445424  1
  O  O40  1  0.576505  0.089523  0.375559  1
  O  O41  1  0.077597  0.091967  0.884532  1
