# generated using pymatgen
data_Li3CrFe3O8
_symmetry_space_group_name_H-M   'P 1'
_cell_length_a   5.19835013
_cell_length_b   7.86057682
_cell_length_c   7.88047700
_cell_angle_alpha   81.70537470
_cell_angle_beta   70.96020008
_cell_angle_gamma   83.96367325
_symmetry_Int_Tables_number   1
_chemical_formula_structural   Li3CrFe3O8
_chemical_formula_sum   'Li6 Cr2 Fe6 O16'
_cell_volume   300.63000089
_cell_formula_units_Z   2
loop_
 _symmetry_equiv_pos_site_id
 _symmetry_equiv_pos_as_xyz
  1  'x, y, z'
loop_
 _atom_site_type_symbol
 _atom_site_label
 _atom_site_symmetry_multiplicity
 _atom_site_fract_x
 _atom_site_fract_y
 _atom_site_fract_z
 _atom_site_occupancy
  Li  Li0  1  0.000000  0.000000  0.000000  1
  Li  Li1  1  0.998750  0.617641  0.120107  1
  Li  Li2  1  0.999639  0.117164  0.625062  1
  Li  Li3  1  0.000000  0.500000  0.500000  1
  Li  Li4  1  0.000361  0.882836  0.374938  1
  Li  Li5  1  0.001250  0.382359  0.879893  1
  Cr  Cr6  1  0.491109  0.687689  0.437706  1
  Cr  Cr7  1  0.508891  0.312311  0.562294  1
  Fe  Fe8  1  0.495955  0.433336  0.186553  1
  Fe  Fe9  1  0.517001  0.813136  0.056946  1
  Fe  Fe10  1  0.505462  0.064037  0.307560  1
  Fe  Fe11  1  0.494538  0.935963  0.692440  1
  Fe  Fe12  1  0.482999  0.186864  0.943054  1
  Fe  Fe13  1  0.504045  0.566664  0.813447  1
  O  O14  1  0.276646  0.021810  0.151488  1
  O  O15  1  0.275779  0.413786  0.018124  1
  O  O16  1  0.275051  0.654696  0.287524  1
  O  O17  1  0.293226  0.281620  0.412231  1
  O  O18  1  0.284461  0.901480  0.514819  1
  O  O19  1  0.269742  0.159730  0.771380  1
  O  O20  1  0.287417  0.516207  0.641752  1
  O  O21  1  0.715457  0.219293  0.095176  1
  O  O22  1  0.284543  0.780707  0.904824  1
  O  O23  1  0.712583  0.483793  0.358248  1
  O  O24  1  0.730258  0.840270  0.228620  1
  O  O25  1  0.715539  0.098520  0.485181  1
  O  O26  1  0.706774  0.718380  0.587769  1
  O  O27  1  0.724949  0.345304  0.712476  1
  O  O28  1  0.724221  0.586214  0.981876  1
  O  O29  1  0.723354  0.978190  0.848512  1
