# generated using pymatgen
data_Li2Cr(PO4)2
_symmetry_space_group_name_H-M   'P 1'
_cell_length_a   4.86701514
_cell_length_b   4.86701514
_cell_length_c   7.41708396
_cell_angle_alpha   90.00000000
_cell_angle_beta   90.00000000
_cell_angle_gamma   120.00000000
_symmetry_Int_Tables_number   1
_chemical_formula_structural   Li2Cr(PO4)2
_chemical_formula_sum   'Li2 Cr1 P2 O8'
_cell_volume   152.15604842
_cell_formula_units_Z   1
loop_
 _symmetry_equiv_pos_site_id
 _symmetry_equiv_pos_as_xyz
  1  'x, y, z'
loop_
 _atom_site_type_symbol
 _atom_site_label
 _atom_site_symmetry_multiplicity
 _atom_site_fract_x
 _atom_site_fract_y
 _atom_site_fract_z
 _atom_site_occupancy
  Li  Li0  1  0.333333  0.666667  0.181631  1
  Li  Li1  1  0.666667  0.333333  0.818369  1
  Cr  Cr2  1  0.000000  0.000000  0.500000  1
  P  P3  1  0.333333  0.666667  0.722834  1
  P  P4  1  0.666667  0.333333  0.277166  1
  O  O5  1  0.041686  0.689380  0.655119  1
  O  O6  1  0.333333  0.666667  0.926148  1
  O  O7  1  0.310620  0.352306  0.655119  1
  O  O8  1  0.647694  0.958314  0.655119  1
  O  O9  1  0.352306  0.041686  0.344881  1
  O  O10  1  0.689380  0.647694  0.344881  1
  O  O11  1  0.666667  0.333333  0.073852  1
  O  O12  1  0.958314  0.310620  0.344881  1
