# generated using pymatgen
data_Li3V2(SiO5)2
_symmetry_space_group_name_H-M   'P 1'
_cell_length_a   4.55447645
_cell_length_b   8.99627825
_cell_length_c   9.28755643
_cell_angle_alpha   90.00000000
_cell_angle_beta   90.00000000
_cell_angle_gamma   90.00000000
_symmetry_Int_Tables_number   1
_chemical_formula_structural   Li3V2(SiO5)2
_chemical_formula_sum   'Li6 V4 Si4 O20'
_cell_volume   380.54218348
_cell_formula_units_Z   2
loop_
 _symmetry_equiv_pos_site_id
 _symmetry_equiv_pos_as_xyz
  1  'x, y, z'
loop_
 _atom_site_type_symbol
 _atom_site_label
 _atom_site_symmetry_multiplicity
 _atom_site_fract_x
 _atom_site_fract_y
 _atom_site_fract_z
 _atom_site_occupancy
  Li  Li0  1  0.384162  0.000000  0.004824  1
  Li  Li1  1  0.615838  0.000000  0.504824  1
  Li  Li2  1  0.999244  0.746403  0.002515  1
  Li  Li3  1  0.000756  0.746403  0.502515  1
  Li  Li4  1  0.999244  0.253597  0.002515  1
  Li  Li5  1  0.000756  0.253597  0.502515  1
  V  V6  1  0.042603  0.000000  0.290599  1
  V  V7  1  0.957397  0.000000  0.790599  1
  V  V8  1  0.424425  0.500000  0.496380  1
  V  V9  1  0.575575  0.500000  0.996380  1
  Si  Si10  1  0.499838  0.748901  0.248172  1
  Si  Si11  1  0.500162  0.748901  0.748172  1
  Si  Si12  1  0.500162  0.251099  0.748172  1
  Si  Si13  1  0.499838  0.251099  0.248172  1
  O  O14  1  0.196556  0.000000  0.455168  1
  O  O15  1  0.803444  0.000000  0.955168  1
  O  O16  1  0.255525  0.854063  0.164673  1
  O  O17  1  0.744475  0.854063  0.664673  1
  O  O18  1  0.740466  0.849625  0.336133  1
  O  O19  1  0.259534  0.849625  0.836133  1
  O  O20  1  0.683443  0.648394  0.131987  1
  O  O21  1  0.316557  0.648394  0.631987  1
  O  O22  1  0.312188  0.646671  0.361859  1
  O  O23  1  0.687812  0.646671  0.861859  1
  O  O24  1  0.783108  0.500000  0.496106  1
  O  O25  1  0.216892  0.500000  0.996106  1
  O  O26  1  0.312188  0.353329  0.361859  1
  O  O27  1  0.687812  0.353329  0.861859  1
  O  O28  1  0.683443  0.351606  0.131987  1
  O  O29  1  0.316557  0.351606  0.631987  1
  O  O30  1  0.740466  0.150375  0.336133  1
  O  O31  1  0.259534  0.150375  0.836133  1
  O  O32  1  0.744475  0.145937  0.664673  1
  O  O33  1  0.255525  0.145937  0.164673  1
