# generated using pymatgen
data_Sb2(SO4)3
_symmetry_space_group_name_H-M   'P 1'
_cell_length_a   9.59807785
_cell_length_b   9.59807785
_cell_length_c   9.59807785
_cell_angle_alpha   55.24963166
_cell_angle_beta   55.24963166
_cell_angle_gamma   55.24963166
_symmetry_Int_Tables_number   1
_chemical_formula_structural   Sb2(SO4)3
_chemical_formula_sum   'Sb4 S6 O24'
_cell_volume   556.19425241
_cell_formula_units_Z   2
loop_
 _symmetry_equiv_pos_site_id
 _symmetry_equiv_pos_as_xyz
  1  'x, y, z'
loop_
 _atom_site_type_symbol
 _atom_site_label
 _atom_site_symmetry_multiplicity
 _atom_site_fract_x
 _atom_site_fract_y
 _atom_site_fract_z
 _atom_site_occupancy
  Sb  Sb0  1  0.142818  0.142818  0.142818  1
  Sb  Sb1  1  0.347614  0.347614  0.347614  1
  Sb  Sb2  1  0.652386  0.652386  0.652386  1
  Sb  Sb3  1  0.857182  0.857182  0.857182  1
  S  S4  1  0.040519  0.455941  0.751012  1
  S  S5  1  0.544059  0.248988  0.959481  1
  S  S6  1  0.248988  0.959481  0.544059  1
  S  S7  1  0.751012  0.040519  0.455941  1
  S  S8  1  0.455941  0.751012  0.040519  1
  S  S9  1  0.959481  0.544059  0.248988  1
  O  O10  1  0.207798  0.141246  0.531959  1
  O  O11  1  0.141246  0.531959  0.207798  1
  O  O12  1  0.017760  0.590143  0.802151  1
  O  O13  1  0.135342  0.267144  0.859725  1
  O  O14  1  0.531959  0.207798  0.141246  1
  O  O15  1  0.140275  0.864658  0.732856  1
  O  O16  1  0.409857  0.197849  0.982240  1
  O  O17  1  0.151602  0.494079  0.553629  1
  O  O18  1  0.505921  0.446371  0.848398  1
  O  O19  1  0.197849  0.982240  0.409857  1
  O  O20  1  0.732856  0.140275  0.864658  1
  O  O21  1  0.446371  0.848398  0.505921  1
  O  O22  1  0.553629  0.151602  0.494079  1
  O  O23  1  0.267144  0.859725  0.135342  1
  O  O24  1  0.802151  0.017760  0.590143  1
  O  O25  1  0.494079  0.553629  0.151602  1
  O  O26  1  0.848398  0.505921  0.446371  1
  O  O27  1  0.590143  0.802151  0.017760  1
  O  O28  1  0.859725  0.135342  0.267144  1
  O  O29  1  0.468041  0.792202  0.858754  1
  O  O30  1  0.864658  0.732856  0.140275  1
  O  O31  1  0.982240  0.409857  0.197849  1
  O  O32  1  0.858754  0.468041  0.792202  1
  O  O33  1  0.792202  0.858754  0.468041  1
