# generated using pymatgen
data_NaTi2(PO4)3
_symmetry_space_group_name_H-M   'P 1'
_cell_length_a   8.71007011
_cell_length_b   8.79649153
_cell_length_c   12.25892213
_cell_angle_alpha   89.91106518
_cell_angle_beta   89.28073550
_cell_angle_gamma   89.91208953
_symmetry_Int_Tables_number   1
_chemical_formula_structural   NaTi2(PO4)3
_chemical_formula_sum   'Na4 Ti8 P12 O48'
_cell_volume   939.17858934
_cell_formula_units_Z   4
loop_
 _symmetry_equiv_pos_site_id
 _symmetry_equiv_pos_as_xyz
  1  'x, y, z'
loop_
 _atom_site_type_symbol
 _atom_site_label
 _atom_site_symmetry_multiplicity
 _atom_site_fract_x
 _atom_site_fract_y
 _atom_site_fract_z
 _atom_site_occupancy
  Na  Na0  1  0.705956  0.202385  0.832718  1
  Na  Na1  1  0.820876  0.714688  0.680857  1
  Na  Na2  1  0.418981  0.448345  0.314122  1
  Na  Na3  1  0.081633  0.948687  0.186554  1
  Ti  Ti4  1  0.751569  0.532018  0.892849  1
  Ti  Ti5  1  0.249371  0.031564  0.882967  1
  Ti  Ti6  1  0.745201  0.032958  0.606312  1
  Ti  Ti7  1  0.250480  0.532429  0.617715  1
  Ti  Ti8  1  0.261252  0.971863  0.392214  1
  Ti  Ti9  1  0.761435  0.469880  0.385285  1
  Ti  Ti10  1  0.241670  0.471056  0.107921  1
  Ti  Ti11  1  0.739117  0.968518  0.114842  1
  P  P12  1  0.026810  0.748235  0.994921  1
  P  P13  1  0.971422  0.246961  0.001272  1
  P  P14  1  0.388025  0.390765  0.854386  1
  P  P15  1  0.605614  0.884798  0.855438  1
  P  P16  1  0.892642  0.387497  0.644430  1
  P  P17  1  0.114656  0.894239  0.645109  1
  P  P18  1  0.470454  0.248969  0.504134  1
  P  P19  1  0.531832  0.747947  0.500226  1
  P  P20  1  0.888886  0.110633  0.353691  1
  P  P21  1  0.113271  0.614351  0.355354  1
  P  P22  1  0.387363  0.114970  0.144832  1
  P  P23  1  0.609989  0.610637  0.146185  1
  O  O24  1  0.315251  0.441067  0.963809  1
  O  O25  1  0.673791  0.948764  0.961356  1
  O  O26  1  0.131658  0.858171  0.931450  1
  O  O27  1  0.860992  0.348385  0.934678  1
  O  O28  1  0.071633  0.160531  0.917622  1
  O  O29  1  0.934853  0.653887  0.912551  1
  O  O30  1  0.564576  0.413098  0.859734  1
  O  O31  1  0.430611  0.904439  0.856847  1
  O  O32  1  0.361473  0.219064  0.835733  1
  O  O33  1  0.649810  0.716308  0.836715  1
  O  O34  1  0.321279  0.492428  0.763985  1
  O  O35  1  0.678761  0.977910  0.759975  1
  O  O36  1  0.184469  0.991307  0.736317  1
  O  O37  1  0.819399  0.480798  0.739399  1
  O  O38  1  0.845354  0.219705  0.662373  1
  O  O39  1  0.131608  0.720924  0.663517  1
  O  O40  1  0.067993  0.406835  0.645635  1
  O  O41  1  0.940059  0.926965  0.639093  1
  O  O42  1  0.559215  0.146866  0.584399  1
  O  O43  1  0.424453  0.664808  0.581288  1
  O  O44  1  0.368304  0.359071  0.569727  1
  O  O45  1  0.648513  0.839313  0.568538  1
  O  O46  1  0.191132  0.941642  0.536594  1
  O  O47  1  0.828433  0.451483  0.537041  1
  O  O48  1  0.808928  0.060623  0.461627  1
  O  O49  1  0.182709  0.560002  0.463407  1
  O  O50  1  0.364325  0.154713  0.430169  1
  O  O51  1  0.623451  0.635789  0.428671  1
  O  O52  1  0.579880  0.334907  0.426528  1
  O  O53  1  0.441079  0.852030  0.422355  1
  O  O54  1  0.063011  0.082744  0.357954  1
  O  O55  1  0.936359  0.592304  0.354919  1
  O  O56  1  0.858254  0.282112  0.337036  1
  O  O57  1  0.149294  0.784106  0.335095  1
  O  O58  1  0.183072  0.514405  0.262937  1
  O  O59  1  0.823909  0.011050  0.260866  1
  O  O60  1  0.676882  0.509652  0.237533  1
  O  O61  1  0.317526  0.014947  0.237154  1
  O  O62  1  0.356283  0.285257  0.166073  1
  O  O63  1  0.642077  0.781490  0.163133  1
  O  O64  1  0.563590  0.089464  0.143536  1
  O  O65  1  0.435232  0.585164  0.143280  1
  O  O66  1  0.067997  0.341307  0.080629  1
  O  O67  1  0.920860  0.834526  0.074980  1
  O  O68  1  0.130336  0.647329  0.066773  1
  O  O69  1  0.871463  0.137528  0.069047  1
  O  O70  1  0.315178  0.063075  0.037211  1
  O  O71  1  0.685081  0.561272  0.036524  1
