# generated using pymatgen
data_Ba2GaP4HO14
_symmetry_space_group_name_H-M   'P 1'
_cell_length_a   4.84903632
_cell_length_b   7.66364021
_cell_length_c   8.68009674
_cell_angle_alpha   108.07905020
_cell_angle_beta   97.03796405
_cell_angle_gamma   105.77939360
_symmetry_Int_Tables_number   1
_chemical_formula_structural   Ba2GaP4HO14
_chemical_formula_sum   'Ba2 Ga1 P4 H1 O14'
_cell_volume   287.43551352
_cell_formula_units_Z   1
loop_
 _symmetry_equiv_pos_site_id
 _symmetry_equiv_pos_as_xyz
  1  'x, y, z'
loop_
 _atom_site_type_symbol
 _atom_site_label
 _atom_site_symmetry_multiplicity
 _atom_site_fract_x
 _atom_site_fract_y
 _atom_site_fract_z
 _atom_site_occupancy
  Ba  Ba0  1  0.145967  0.473566  0.740976  1
  Ba  Ba1  1  0.854033  0.526434  0.259024  1
  Ga  Ga2  1  0.000000  0.000000  0.000000  1
  P  P3  1  0.454229  0.817011  0.138687  1
  P  P4  1  0.625491  0.828154  0.625772  1
  P  P5  1  0.374509  0.171846  0.374228  1
  P  P6  1  0.545771  0.182989  0.861313  1
  H  H7  1  0.000000  0.000000  0.500000  1
  O  O8  1  0.260905  0.837779  0.994935  1
  O  O9  1  0.334128  0.669371  0.533086  1
  O  O10  1  0.420553  0.960348  0.311488  1
  O  O11  1  0.219904  0.132395  0.867618  1
  O  O12  1  0.156566  0.148046  0.488359  1
  O  O13  1  0.343979  0.612390  0.141955  1
  O  O14  1  0.251852  0.206936  0.217274  1
  O  O15  1  0.748148  0.793064  0.782726  1
  O  O16  1  0.656021  0.387610  0.858045  1
  O  O17  1  0.843434  0.851954  0.511641  1
  O  O18  1  0.780096  0.867605  0.132382  1
  O  O19  1  0.579447  0.039652  0.688512  1
  O  O20  1  0.665872  0.330629  0.466914  1
  O  O21  1  0.739095  0.162221  0.005065  1
