# generated using pymatgen
data_Al13Si5H18ClO38
_symmetry_space_group_name_H-M   'P 1'
_cell_length_a   9.95476334
_cell_length_b   9.95476334
_cell_length_c   9.95476334
_cell_angle_alpha   60.00000000
_cell_angle_beta   60.00000000
_cell_angle_gamma   60.00000000
_symmetry_Int_Tables_number   1
_chemical_formula_structural   Al13Si5H18ClO38
_chemical_formula_sum   'Al13 Si5 H18 Cl1 O38'
_cell_volume   697.55397993
_cell_formula_units_Z   1
loop_
 _symmetry_equiv_pos_site_id
 _symmetry_equiv_pos_as_xyz
  1  'x, y, z'
loop_
 _atom_site_type_symbol
 _atom_site_label
 _atom_site_symmetry_multiplicity
 _atom_site_fract_x
 _atom_site_fract_y
 _atom_site_fract_z
 _atom_site_occupancy
  Al  Al0  1  0.765700  0.765700  0.062182  1
  Al  Al1  1  0.765700  0.406418  0.062182  1
  Al  Al2  1  0.406418  0.765700  0.062182  1
  Al  Al3  1  0.062182  0.765700  0.406418  1
  Al  Al4  1  0.062182  0.765700  0.765700  1
  Al  Al5  1  0.765700  0.765700  0.406418  1
  Al  Al6  1  0.750000  0.750000  0.750000  1
  Al  Al7  1  0.062182  0.406418  0.765700  1
  Al  Al8  1  0.765700  0.406418  0.765700  1
  Al  Al9  1  0.406418  0.765700  0.765700  1
  Al  Al10  1  0.765700  0.062182  0.406418  1
  Al  Al11  1  0.765700  0.062182  0.765700  1
  Al  Al12  1  0.406418  0.062182  0.765700  1
  Si  Si13  1  0.660116  0.113295  0.113295  1
  Si  Si14  1  0.113295  0.660116  0.113295  1
  Si  Si15  1  0.250000  0.250000  0.250000  1
  Si  Si16  1  0.113295  0.113295  0.660116  1
  Si  Si17  1  0.113295  0.113295  0.113295  1
  H  H18  1  0.909386  0.480184  0.130246  1
  H  H19  1  0.480184  0.909386  0.130246  1
  H  H20  1  0.651869  0.651869  0.348131  1
  H  H21  1  0.480184  0.480184  0.130246  1
  H  H22  1  0.348131  0.651869  0.651869  1
  H  H23  1  0.651869  0.348131  0.348131  1
  H  H24  1  0.348131  0.651869  0.348131  1
  H  H25  1  0.130246  0.909386  0.480184  1
  H  H26  1  0.348131  0.348131  0.651869  1
  H  H27  1  0.130246  0.480184  0.909386  1
  H  H28  1  0.130246  0.480184  0.480184  1
  H  H29  1  0.909386  0.480184  0.480184  1
  H  H30  1  0.480184  0.909386  0.480184  1
  H  H31  1  0.480184  0.480184  0.909386  1
  H  H32  1  0.651869  0.348131  0.651869  1
  H  H33  1  0.909386  0.130246  0.480184  1
  H  H34  1  0.480184  0.130246  0.480184  1
  H  H35  1  0.480184  0.130246  0.909386  1
  Cl  Cl36  1  0.500000  0.500000  0.500000  1
  O  O37  1  0.722221  0.722221  0.277779  1
  O  O38  1  0.810915  0.544773  0.099538  1
  O  O39  1  0.544773  0.810915  0.099538  1
  O  O40  1  0.544773  0.544773  0.099538  1
  O  O41  1  0.722221  0.277779  0.277779  1
  O  O42  1  0.277779  0.722221  0.277779  1
  O  O43  1  0.277779  0.722221  0.722221  1
  O  O44  1  0.720718  0.275296  0.001993  1
  O  O45  1  0.275296  0.720718  0.001993  1
  O  O46  1  0.099538  0.810915  0.544773  1
  O  O47  1  0.720718  0.001993  0.275296  1
  O  O48  1  0.720718  0.001993  0.001993  1
  O  O49  1  0.001993  0.720718  0.275296  1
  O  O50  1  0.001993  0.720718  0.001993  1
  O  O51  1  0.824732  0.824732  0.525805  1
  O  O52  1  0.824732  0.824732  0.824732  1
  O  O53  1  0.099538  0.544773  0.810915  1
  O  O54  1  0.099538  0.544773  0.544773  1
  O  O55  1  0.451958  0.182681  0.182681  1
  O  O56  1  0.182681  0.451958  0.182681  1
  O  O57  1  0.277779  0.277779  0.722221  1
  O  O58  1  0.182681  0.182681  0.182681  1
  O  O59  1  0.182681  0.182681  0.451958  1
  O  O60  1  0.810915  0.544773  0.544773  1
  O  O61  1  0.544773  0.810915  0.544773  1
  O  O62  1  0.824732  0.525805  0.824732  1
  O  O63  1  0.525805  0.824732  0.824732  1
  O  O64  1  0.001993  0.275296  0.001993  1
  O  O65  1  0.275296  0.001993  0.720718  1
  O  O66  1  0.001993  0.275296  0.720718  1
  O  O67  1  0.275296  0.001993  0.001993  1
  O  O68  1  0.544773  0.544773  0.810915  1
  O  O69  1  0.001993  0.001993  0.720718  1
  O  O70  1  0.001993  0.001993  0.275296  1
  O  O71  1  0.722221  0.277779  0.722221  1
  O  O72  1  0.810915  0.099538  0.544773  1
  O  O73  1  0.544773  0.099538  0.544773  1
  O  O74  1  0.544773  0.099538  0.810915  1
