# generated using pymatgen
data_LiCo2OF3
_symmetry_space_group_name_H-M   'P 1'
_cell_length_a   6.11493025
_cell_length_b   6.15785959
_cell_length_c   8.51055685
_cell_angle_alpha   89.85615851
_cell_angle_beta   89.91553260
_cell_angle_gamma   89.08559561
_symmetry_Int_Tables_number   1
_chemical_formula_structural   LiCo2OF3
_chemical_formula_sum   'Li4 Co8 O4 F12'
_cell_volume   320.42186313
_cell_formula_units_Z   4
loop_
 _symmetry_equiv_pos_site_id
 _symmetry_equiv_pos_as_xyz
  1  'x, y, z'
loop_
 _atom_site_type_symbol
 _atom_site_label
 _atom_site_symmetry_multiplicity
 _atom_site_fract_x
 _atom_site_fract_y
 _atom_site_fract_z
 _atom_site_occupancy
  Li  Li0  1  0.247415  0.489545  0.254808  1
  Li  Li1  1  0.487494  0.250785  0.003224  1
  Li  Li2  1  0.500405  0.762038  0.495187  1
  Li  Li3  1  0.738444  0.497189  0.745447  1
  Co  Co4  1  0.012286  0.242138  0.012098  1
  Co  Co5  1  0.998924  0.769425  0.501503  1
  Co  Co6  1  0.250045  0.228871  0.606218  1
  Co  Co7  1  0.254438  0.773780  0.891819  1
  Co  Co8  1  0.242052  0.018245  0.253880  1
  Co  Co9  1  0.740879  0.001180  0.734232  1
  Co  Co10  1  0.771619  0.236497  0.377928  1
  Co  Co11  1  0.742776  0.736532  0.121580  1
  O  O12  1  0.018153  0.266055  0.240972  1
  O  O13  1  0.255174  0.025517  0.014258  1
  O  O14  1  0.244940  0.974422  0.485296  1
  O  O15  1  0.751646  0.980242  0.510284  1
  F  F16  1  0.010491  0.744032  0.244384  1
  F  F17  1  0.243872  0.517045  0.498719  1
  F  F18  1  0.262608  0.493230  0.004185  1
  F  F19  1  0.495880  0.264821  0.246506  1
  F  F20  1  0.483760  0.738694  0.252912  1
  F  F21  1  0.511437  0.255124  0.752718  1
  F  F22  1  0.517431  0.744637  0.749975  1
  F  F23  1  0.744261  0.002914  0.984368  1
  F  F24  1  0.758752  0.517718  0.513098  1
  F  F25  1  0.750731  0.477848  0.985828  1
  F  F26  1  0.983103  0.250348  0.759245  1
  F  F27  1  0.980982  0.741130  0.759327  1
