# generated using pymatgen
data_VOF
_symmetry_space_group_name_H-M   'P 1'
_cell_length_a   4.73681558
_cell_length_b   4.73681558
_cell_length_c   6.21805588
_cell_angle_alpha   90.00000000
_cell_angle_beta   90.00000000
_cell_angle_gamma   90.00000000
_symmetry_Int_Tables_number   1
_chemical_formula_structural   VOF
_chemical_formula_sum   'V4 O4 F4'
_cell_volume   139.51714293
_cell_formula_units_Z   4
loop_
 _symmetry_equiv_pos_site_id
 _symmetry_equiv_pos_as_xyz
  1  'x, y, z'
loop_
 _atom_site_type_symbol
 _atom_site_label
 _atom_site_symmetry_multiplicity
 _atom_site_fract_x
 _atom_site_fract_y
 _atom_site_fract_z
 _atom_site_occupancy
  V  V0  1  0.470232  0.470232  0.000000  1
  V  V1  1  0.529768  0.529768  0.500000  1
  V  V2  1  0.029768  0.970232  0.250000  1
  V  V3  1  0.970232  0.029768  0.750000  1
  O  O4  1  0.680747  0.319253  0.750000  1
  O  O5  1  0.819253  0.819253  0.500000  1
  O  O6  1  0.180747  0.180747  0.000000  1
  O  O7  1  0.319253  0.680747  0.250000  1
  F  F8  1  0.709094  0.290906  0.250000  1
  F  F9  1  0.790906  0.790906  0.000000  1
  F  F10  1  0.209094  0.209094  0.500000  1
  F  F11  1  0.290906  0.709094  0.750000  1
