# generated using pymatgen
data_Li3V2CoO6
_symmetry_space_group_name_H-M   'P 1'
_cell_length_a   6.58994208
_cell_length_b   6.58994208
_cell_length_c   5.99170905
_cell_angle_alpha   75.72977471
_cell_angle_beta   104.27022529
_cell_angle_gamma   153.65012177
_symmetry_Int_Tables_number   1
_chemical_formula_structural   Li3V2CoO6
_chemical_formula_sum   'Li3 V2 Co1 O6'
_cell_volume   111.72972533
_cell_formula_units_Z   1
loop_
 _symmetry_equiv_pos_site_id
 _symmetry_equiv_pos_as_xyz
  1  'x, y, z'
loop_
 _atom_site_type_symbol
 _atom_site_label
 _atom_site_symmetry_multiplicity
 _atom_site_fract_x
 _atom_site_fract_y
 _atom_site_fract_z
 _atom_site_occupancy
  Li  Li0  1  0.000000  0.000000  0.000000  1
  Li  Li1  1  0.336197  0.663803  0.665132  1
  Li  Li2  1  0.663803  0.336197  0.334868  1
  V  V3  1  0.336959  0.663041  0.174001  1
  V  V4  1  0.663041  0.336959  0.825999  1
  Co  Co5  1  0.000000  1.000000  0.500000  1
  O  O6  1  0.831514  0.168486  0.398823  1
  O  O7  1  0.173160  0.826840  0.066149  1
  O  O8  1  0.168486  0.831514  0.601177  1
  O  O9  1  0.509095  0.490905  0.754317  1
  O  O10  1  0.490905  0.509095  0.245683  1
  O  O11  1  0.826840  0.173160  0.933851  1
