# generated using pymatgen
data_Li2MnV4FeO12
_symmetry_space_group_name_H-M   'P 1'
_cell_length_a   6.99287550
_cell_length_b   6.99287550
_cell_length_c   5.82796470
_cell_angle_alpha   74.53045502
_cell_angle_beta   105.46954498
_cell_angle_gamma   96.82539977
_symmetry_Int_Tables_number   1
_chemical_formula_structural   Li2MnV4FeO12
_chemical_formula_sum   'Li2 Mn1 V4 Fe1 O12'
_cell_volume   264.36502639
_cell_formula_units_Z   1
loop_
 _symmetry_equiv_pos_site_id
 _symmetry_equiv_pos_as_xyz
  1  'x, y, z'
loop_
 _atom_site_type_symbol
 _atom_site_label
 _atom_site_symmetry_multiplicity
 _atom_site_fract_x
 _atom_site_fract_y
 _atom_site_fract_z
 _atom_site_occupancy
  Li  Li0  1  0.756631  0.756631  0.500000  1
  Li  Li1  1  0.245411  0.245411  0.000000  1
  Mn  Mn2  1  0.088017  0.088017  0.500000  1
  V  V3  1  0.394605  0.809632  0.018859  1
  V  V4  1  0.205301  0.609637  0.522428  1
  V  V5  1  0.809632  0.394605  0.981141  1
  V  V6  1  0.609637  0.205301  0.477572  1
  Fe  Fe7  1  0.914882  0.914882  0.000000  1
  O  O8  1  0.200054  0.981315  0.901645  1
  O  O9  1  0.641437  0.891113  0.091773  1
  O  O10  1  0.024046  0.787174  0.407542  1
  O  O11  1  0.350842  0.634696  0.810717  1
  O  O12  1  0.891113  0.641437  0.908227  1
  O  O13  1  0.355780  0.638471  0.315281  1
  O  O14  1  0.634696  0.350842  0.189283  1
  O  O15  1  0.097886  0.373070  0.575063  1
  O  O16  1  0.638471  0.355780  0.684719  1
  O  O17  1  0.981315  0.200054  0.098355  1
  O  O18  1  0.373070  0.097886  0.424937  1
  O  O19  1  0.787174  0.024046  0.592458  1
