# generated using pymatgen
data_LiMnPCO7
_symmetry_space_group_name_H-M   'P 1'
_cell_length_a   5.11569565
_cell_length_b   6.24042652
_cell_length_c   16.70919064
_cell_angle_alpha   90.00000000
_cell_angle_beta   94.15678707
_cell_angle_gamma   90.00000000
_symmetry_Int_Tables_number   1
_chemical_formula_structural   LiMnPCO7
_chemical_formula_sum   'Li4 Mn4 P4 C4 O28'
_cell_volume   532.02303876
_cell_formula_units_Z   4
loop_
 _symmetry_equiv_pos_site_id
 _symmetry_equiv_pos_as_xyz
  1  'x, y, z'
loop_
 _atom_site_type_symbol
 _atom_site_label
 _atom_site_symmetry_multiplicity
 _atom_site_fract_x
 _atom_site_fract_y
 _atom_site_fract_z
 _atom_site_occupancy
  Li  Li0  1  0.241815  0.471219  0.868198  1
  Li  Li1  1  0.758185  0.971219  0.631802  1
  Li  Li2  1  0.241815  0.028781  0.368198  1
  Li  Li3  1  0.758185  0.528781  0.131802  1
  Mn  Mn4  1  0.794563  0.760427  0.835126  1
  Mn  Mn5  1  0.205437  0.260427  0.664874  1
  Mn  Mn6  1  0.794563  0.739573  0.335126  1
  Mn  Mn7  1  0.205437  0.239573  0.164874  1
  P  P8  1  0.723041  0.254260  0.787130  1
  P  P9  1  0.276959  0.754260  0.712870  1
  P  P10  1  0.723041  0.245740  0.287130  1
  P  P11  1  0.276959  0.745740  0.212870  1
  C  C12  1  0.710390  0.734034  0.974257  1
  C  C13  1  0.289610  0.234034  0.525743  1
  C  C14  1  0.710390  0.765966  0.474257  1
  C  C15  1  0.289610  0.265966  0.025743  1
  O  O16  1  0.945470  0.749722  0.947034  1
  O  O17  1  0.337204  0.279519  0.954819  1
  O  O18  1  0.528325  0.735231  0.912926  1
  O  O19  1  0.792286  0.062896  0.842997  1
  O  O20  1  0.825271  0.448037  0.838126  1
  O  O21  1  0.142846  0.738723  0.792406  1
  O  O22  1  0.421461  0.274652  0.767383  1
  O  O23  1  0.578539  0.774652  0.732617  1
  O  O24  1  0.857154  0.238723  0.707594  1
  O  O25  1  0.174729  0.948037  0.661874  1
  O  O26  1  0.207714  0.562896  0.657003  1
  O  O27  1  0.471675  0.235231  0.587074  1
  O  O28  1  0.662796  0.779519  0.545181  1
  O  O29  1  0.054530  0.249722  0.552966  1
  O  O30  1  0.945470  0.750278  0.447034  1
  O  O31  1  0.337204  0.220481  0.454819  1
  O  O32  1  0.528325  0.764769  0.412926  1
  O  O33  1  0.825271  0.051963  0.338126  1
  O  O34  1  0.792286  0.437104  0.342997  1
  O  O35  1  0.142846  0.761277  0.292406  1
  O  O36  1  0.421461  0.225348  0.267383  1
  O  O37  1  0.578539  0.725348  0.232617  1
  O  O38  1  0.857154  0.261277  0.207594  1
  O  O39  1  0.207714  0.937104  0.157003  1
  O  O40  1  0.174729  0.551963  0.161874  1
  O  O41  1  0.471675  0.264769  0.087074  1
  O  O42  1  0.662796  0.720481  0.045181  1
  O  O43  1  0.054530  0.250278  0.052966  1
