# generated using pymatgen
data_Li3Mn4(BO3)4
_symmetry_space_group_name_H-M   'P 1'
_cell_length_a   6.18493279
_cell_length_b   9.16783906
_cell_length_c   9.26477679
_cell_angle_alpha   81.19175343
_cell_angle_beta   82.31768960
_cell_angle_gamma   77.06684250
_symmetry_Int_Tables_number   1
_chemical_formula_structural   Li3Mn4(BO3)4
_chemical_formula_sum   'Li6 Mn8 B8 O24'
_cell_volume   503.26822564
_cell_formula_units_Z   2
loop_
 _symmetry_equiv_pos_site_id
 _symmetry_equiv_pos_as_xyz
  1  'x, y, z'
loop_
 _atom_site_type_symbol
 _atom_site_label
 _atom_site_symmetry_multiplicity
 _atom_site_fract_x
 _atom_site_fract_y
 _atom_site_fract_z
 _atom_site_occupancy
  Li  Li0  1  0.714390  0.809411  0.465741  1
  Li  Li1  1  0.478019  0.304441  0.713870  1
  Li  Li2  1  0.521981  0.695559  0.286130  1
  Li  Li3  1  0.285610  0.190589  0.534259  1
  Li  Li4  1  0.204520  0.814057  0.951988  1
  Li  Li5  1  0.795480  0.185943  0.048012  1
  Mn  Mn6  1  0.510498  0.619290  0.741040  1
  Mn  Mn7  1  0.222140  0.877314  0.521277  1
  Mn  Mn8  1  0.732979  0.871890  0.003206  1
  Mn  Mn9  1  0.489502  0.380710  0.258960  1
  Mn  Mn10  1  0.012171  0.606233  0.234753  1
  Mn  Mn11  1  0.777860  0.122686  0.478723  1
  Mn  Mn12  1  0.267021  0.128110  0.996794  1
  Mn  Mn13  1  0.987829  0.393767  0.765247  1
  B  B14  1  0.504817  0.961361  0.734313  1
  B  B15  1  0.266136  0.532325  0.515576  1
  B  B16  1  0.719759  0.540765  0.015091  1
  B  B17  1  0.495183  0.038639  0.265687  1
  B  B18  1  0.008717  0.945817  0.234567  1
  B  B19  1  0.733864  0.467675  0.484424  1
  B  B20  1  0.280241  0.459235  0.984909  1
  B  B21  1  0.991283  0.054183  0.765433  1
  O  O22  1  0.522405  0.841835  0.652550  1
  O  O23  1  0.695154  0.437842  0.637506  1
  O  O24  1  0.537720  0.100223  0.665156  1
  O  O25  1  0.283516  0.645331  0.597263  1
  O  O26  1  0.462280  0.899777  0.334844  1
  O  O27  1  0.223556  0.396621  0.581204  1
  O  O28  1  0.304846  0.562158  0.362494  1
  O  O29  1  0.052441  0.078153  0.611730  1
  O  O30  1  0.717222  0.649869  0.103270  1
  O  O31  1  0.477595  0.158165  0.347450  1
  O  O32  1  0.947559  0.921847  0.388270  1
  O  O33  1  0.692415  0.397751  0.073397  1
  O  O34  1  0.776444  0.603379  0.418796  1
  O  O35  1  0.561153  0.061248  0.115564  1
  O  O36  1  0.025286  0.828885  0.151205  1
  O  O37  1  0.716484  0.354669  0.402737  1
  O  O38  1  0.438847  0.938752  0.884436  1
  O  O39  1  0.234028  0.426713  0.138378  1
  O  O40  1  0.307585  0.602249  0.926603  1
  O  O41  1  0.037451  0.085348  0.171433  1
  O  O42  1  0.282778  0.350131  0.896730  1
  O  O43  1  0.962549  0.914652  0.828567  1
  O  O44  1  0.765972  0.573287  0.861622  1
  O  O45  1  0.974714  0.171115  0.848795  1
