# generated using pymatgen
data_Ti2Cu(PO4)3
_symmetry_space_group_name_H-M   'P 1'
_cell_length_a   8.65622402
_cell_length_b   8.65622402
_cell_length_c   8.65622402
_cell_angle_alpha   60.00300925
_cell_angle_beta   60.00300925
_cell_angle_gamma   60.00300925
_symmetry_Int_Tables_number   1
_chemical_formula_structural   Ti2Cu(PO4)3
_chemical_formula_sum   'Ti4 Cu2 P6 O24'
_cell_volume   458.66974361
_cell_formula_units_Z   2
loop_
 _symmetry_equiv_pos_site_id
 _symmetry_equiv_pos_as_xyz
  1  'x, y, z'
loop_
 _atom_site_type_symbol
 _atom_site_label
 _atom_site_symmetry_multiplicity
 _atom_site_fract_x
 _atom_site_fract_y
 _atom_site_fract_z
 _atom_site_occupancy
  Ti  Ti0  1  0.858335  0.858335  0.858335  1
  Ti  Ti1  1  0.641665  0.641665  0.641665  1
  Ti  Ti2  1  0.358335  0.358335  0.358335  1
  Ti  Ti3  1  0.141665  0.141665  0.141665  1
  Cu  Cu4  1  0.000000  0.000000  0.000000  1
  Cu  Cu5  1  0.500000  0.500000  0.500000  1
  P  P6  1  0.539014  0.960986  0.250000  1
  P  P7  1  0.250000  0.539014  0.960986  1
  P  P8  1  0.960986  0.250000  0.539014  1
  P  P9  1  0.039014  0.750000  0.460986  1
  P  P10  1  0.750000  0.460986  0.039014  1
  P  P11  1  0.460986  0.039014  0.750000  1
  O  O12  1  0.500347  0.874352  0.696985  1
  O  O13  1  0.874352  0.696985  0.500347  1
  O  O14  1  0.728805  0.942045  0.083330  1
  O  O15  1  0.696985  0.500347  0.874352  1
  O  O16  1  0.374352  0.000347  0.196985  1
  O  O17  1  0.557955  0.771195  0.416670  1
  O  O18  1  0.083330  0.728805  0.942045  1
  O  O19  1  0.416670  0.557955  0.771195  1
  O  O20  1  0.999653  0.803015  0.625648  1
  O  O21  1  0.771195  0.416670  0.557955  1
  O  O22  1  0.057955  0.916670  0.271195  1
  O  O23  1  0.803015  0.625648  0.999653  1
  O  O24  1  0.196985  0.374352  0.000347  1
  O  O25  1  0.942045  0.083330  0.728805  1
  O  O26  1  0.228805  0.583330  0.442045  1
  O  O27  1  0.000347  0.196985  0.374352  1
  O  O28  1  0.583330  0.442045  0.228805  1
  O  O29  1  0.916670  0.271195  0.057955  1
  O  O30  1  0.442045  0.228805  0.583330  1
  O  O31  1  0.625648  0.999653  0.803015  1
  O  O32  1  0.303015  0.499653  0.125648  1
  O  O33  1  0.271195  0.057955  0.916670  1
  O  O34  1  0.125648  0.303015  0.499653  1
  O  O35  1  0.499653  0.125648  0.303015  1
