# generated using pymatgen
data_Li4Co2Ni3Sn(PO4)6
_symmetry_space_group_name_H-M   'P 1'
_cell_length_a   8.40767817
_cell_length_b   8.51473369
_cell_length_c   8.51447808
_cell_angle_alpha   62.70720821
_cell_angle_beta   63.10660711
_cell_angle_gamma   63.07883381
_symmetry_Int_Tables_number   1
_chemical_formula_structural   Li4Co2Ni3Sn(PO4)6
_chemical_formula_sum   'Li4 Co2 Ni3 Sn1 P6 O24'
_cell_volume   459.37166685
_cell_formula_units_Z   1
loop_
 _symmetry_equiv_pos_site_id
 _symmetry_equiv_pos_as_xyz
  1  'x, y, z'
loop_
 _atom_site_type_symbol
 _atom_site_label
 _atom_site_symmetry_multiplicity
 _atom_site_fract_x
 _atom_site_fract_y
 _atom_site_fract_z
 _atom_site_occupancy
  Li  Li0  1  0.746667  0.147904  0.352083  1
  Li  Li1  1  0.294949  0.844388  0.640174  1
  Li  Li2  1  0.636179  0.294664  0.848210  1
  Li  Li3  1  0.848948  0.636940  0.297863  1
  Co  Co4  1  0.016581  0.001162  0.998814  1
  Co  Co5  1  0.487749  0.503463  0.498840  1
  Ni  Ni6  1  0.142939  0.147563  0.145081  1
  Ni  Ni7  1  0.355639  0.355867  0.352533  1
  Ni  Ni8  1  0.646089  0.646847  0.650180  1
  Sn  Sn9  1  0.852756  0.847924  0.851913  1
  P  P10  1  0.250437  0.542824  0.953508  1
  P  P11  1  0.551568  0.954290  0.251668  1
  P  P12  1  0.944876  0.248309  0.542910  1
  P  P13  1  0.057041  0.744683  0.440883  1
  P  P14  1  0.439217  0.055365  0.747438  1
  P  P15  1  0.746287  0.440803  0.054433  1
  O  O16  1  0.109895  0.303665  0.498552  1
  O  O17  1  0.314107  0.515175  0.105643  1
  O  O18  1  0.056394  0.910463  0.257832  1
  O  O19  1  0.545309  0.101911  0.309861  1
  O  O20  1  0.021158  0.809698  0.603222  1
  O  O21  1  0.251283  0.595862  0.427289  1
  O  O22  1  0.248622  0.075514  0.901785  1
  O  O23  1  0.446351  0.240596  0.586396  1
  O  O24  1  0.173022  0.398351  0.987629  1
  O  O25  1  0.599497  0.424584  0.250727  1
  O  O26  1  0.100453  0.752075  0.919518  1
  O  O27  1  0.393459  0.004575  0.183727  1
  O  O28  1  0.600458  0.015656  0.819508  1
  O  O29  1  0.898214  0.246822  0.076967  1
  O  O30  1  0.404906  0.565332  0.754921  1
  O  O31  1  0.812667  0.601042  0.020638  1
  O  O32  1  0.565184  0.757073  0.407492  1
  O  O33  1  0.757587  0.915321  0.098751  1
  O  O34  1  0.748782  0.406142  0.569978  1
  O  O35  1  0.956295  0.178209  0.401855  1
  O  O36  1  0.475800  0.895927  0.686029  1
  O  O37  1  0.921424  0.096601  0.749889  1
  O  O38  1  0.682618  0.477186  0.896581  1
  O  O39  1  0.898585  0.676218  0.481678  1
