# generated using pymatgen
data_Sn(PO3)4
_symmetry_space_group_name_H-M   'P 1'
_cell_length_a   8.61138771
_cell_length_b   8.61138771
_cell_length_c   9.09013809
_cell_angle_alpha   59.03445084
_cell_angle_beta   120.96554916
_cell_angle_gamma   130.97607664
_symmetry_Int_Tables_number   1
_chemical_formula_structural   Sn(PO3)4
_chemical_formula_sum   'Sn2 P8 O24'
_cell_volume   419.73985069
_cell_formula_units_Z   2
loop_
 _symmetry_equiv_pos_site_id
 _symmetry_equiv_pos_as_xyz
  1  'x, y, z'
loop_
 _atom_site_type_symbol
 _atom_site_label
 _atom_site_symmetry_multiplicity
 _atom_site_fract_x
 _atom_site_fract_y
 _atom_site_fract_z
 _atom_site_occupancy
  Sn  Sn0  1  0.801333  0.801333  0.750000  1
  Sn  Sn1  1  0.198667  0.198667  0.250000  1
  P  P2  1  0.992315  0.707793  0.191135  1
  P  P3  1  0.588083  0.325147  0.118948  1
  P  P4  1  0.707793  0.992315  0.308865  1
  P  P5  1  0.674853  0.411917  0.618948  1
  P  P6  1  0.325147  0.588083  0.381052  1
  P  P7  1  0.292207  0.007685  0.691135  1
  P  P8  1  0.411917  0.674853  0.881052  1
  P  P9  1  0.007685  0.292207  0.808865  1
  O  O10  1  0.784816  0.481307  0.244653  1
  O  O11  1  0.664901  0.176167  0.159218  1
  O  O12  1  0.005398  0.874289  0.214967  1
  O  O13  1  0.874289  0.005398  0.285033  1
  O  O14  1  0.740577  0.992689  0.490574  1
  O  O15  1  0.397117  0.179622  0.194633  1
  O  O16  1  0.820378  0.602883  0.694633  1
  O  O17  1  0.481307  0.784816  0.255347  1
  O  O18  1  0.007311  0.259423  0.990574  1
  O  O19  1  0.823833  0.335099  0.659218  1
  O  O20  1  0.557006  0.432154  0.426596  1
  O  O21  1  0.432154  0.557006  0.073404  1
  O  O22  1  0.567846  0.442994  0.926596  1
  O  O23  1  0.442994  0.567846  0.573404  1
  O  O24  1  0.176167  0.664901  0.340782  1
  O  O25  1  0.992689  0.740577  0.009426  1
  O  O26  1  0.518693  0.215184  0.744653  1
  O  O27  1  0.179622  0.397117  0.305367  1
  O  O28  1  0.602883  0.820378  0.805367  1
  O  O29  1  0.259423  0.007311  0.509426  1
  O  O30  1  0.125711  0.994602  0.714967  1
  O  O31  1  0.994602  0.125711  0.785033  1
  O  O32  1  0.335099  0.823833  0.840782  1
  O  O33  1  0.215184  0.518693  0.755347  1
