# generated using pymatgen
data_Li2Si3NiO8
_symmetry_space_group_name_H-M   'P 1'
_cell_length_a   6.32859038
_cell_length_b   8.44887589
_cell_length_c   6.64822391
_cell_angle_alpha   90.00000000
_cell_angle_beta   105.53966959
_cell_angle_gamma   90.00000000
_symmetry_Int_Tables_number   1
_chemical_formula_structural   Li2Si3NiO8
_chemical_formula_sum   'Li4 Si6 Ni2 O16'
_cell_volume   342.48264648
_cell_formula_units_Z   2
loop_
 _symmetry_equiv_pos_site_id
 _symmetry_equiv_pos_as_xyz
  1  'x, y, z'
loop_
 _atom_site_type_symbol
 _atom_site_label
 _atom_site_symmetry_multiplicity
 _atom_site_fract_x
 _atom_site_fract_y
 _atom_site_fract_z
 _atom_site_occupancy
  Li  Li0  1  0.855846  0.699080  0.254336  1
  Li  Li1  1  0.561678  0.186596  0.526361  1
  Li  Li2  1  0.438322  0.686596  0.473639  1
  Li  Li3  1  0.144154  0.199080  0.745664  1
  Si  Si4  1  0.414732  0.480909  0.028740  1
  Si  Si5  1  0.233237  0.811278  0.088671  1
  Si  Si6  1  0.166253  0.335532  0.296689  1
  Si  Si7  1  0.833747  0.835532  0.703311  1
  Si  Si8  1  0.766763  0.311278  0.911329  1
  Si  Si9  1  0.585268  0.980909  0.971260  1
  Ni  Ni10  1  0.026256  0.010702  0.378898  1
  Ni  Ni11  1  0.973744  0.510702  0.621102  1
  O  O12  1  0.994066  0.259018  0.083326  1
  O  O13  1  0.334459  0.966234  0.997188  1
  O  O14  1  0.410434  0.665430  0.108376  1
  O  O15  1  0.765347  0.930935  0.177982  1
  O  O16  1  0.398331  0.371570  0.231171  1
  O  O17  1  0.207063  0.835629  0.320833  1
  O  O18  1  0.070996  0.497600  0.366640  1
  O  O19  1  0.230272  0.194337  0.470062  1
  O  O20  1  0.769728  0.694337  0.529938  1
  O  O21  1  0.929004  0.997600  0.633360  1
  O  O22  1  0.792937  0.335629  0.679167  1
  O  O23  1  0.601669  0.871570  0.768829  1
  O  O24  1  0.234653  0.430935  0.822018  1
  O  O25  1  0.589566  0.165430  0.891624  1
  O  O26  1  0.665541  0.466234  0.002812  1
  O  O27  1  0.005934  0.759018  0.916674  1
