# generated using pymatgen
data_Li3Co3OF7
_symmetry_space_group_name_H-M   'P 1'
_cell_length_a   6.06987840
_cell_length_b   6.06987840
_cell_length_c   10.49894272
_cell_angle_alpha   73.16910300
_cell_angle_beta   106.83089700
_cell_angle_gamma   119.91087246
_symmetry_Int_Tables_number   1
_chemical_formula_structural   Li3Co3OF7
_chemical_formula_sum   'Li6 Co6 O2 F14'
_cell_volume   315.98046058
_cell_formula_units_Z   2
loop_
 _symmetry_equiv_pos_site_id
 _symmetry_equiv_pos_as_xyz
  1  'x, y, z'
loop_
 _atom_site_type_symbol
 _atom_site_label
 _atom_site_symmetry_multiplicity
 _atom_site_fract_x
 _atom_site_fract_y
 _atom_site_fract_z
 _atom_site_occupancy
  Li  Li0  1  0.994415  0.490483  0.999419  1
  Li  Li1  1  0.944910  0.065526  0.311650  1
  Li  Li2  1  0.934474  0.055090  0.811650  1
  Li  Li3  1  0.387194  0.140755  0.128285  1
  Li  Li4  1  0.859245  0.612806  0.628285  1
  Li  Li5  1  0.509517  0.005585  0.499419  1
  Co  Co6  1  0.925239  0.560582  0.305579  1
  Co  Co7  1  0.692691  0.802266  0.068259  1
  Co  Co8  1  0.450065  0.559940  0.306435  1
  Co  Co9  1  0.439418  0.074761  0.805579  1
  Co  Co10  1  0.197734  0.307309  0.568259  1
  Co  Co11  1  0.440060  0.549935  0.806435  1
  O  O12  1  0.583305  0.467890  0.190794  1
  O  O13  1  0.532110  0.416695  0.690794  1
  F  F14  1  0.845894  0.203970  0.437755  1
  F  F15  1  0.820256  0.702185  0.428963  1
  F  F16  1  0.583814  0.938236  0.192767  1
  F  F17  1  0.801083  0.694654  0.933232  1
  F  F18  1  0.069840  0.433304  0.197610  1
  F  F19  1  0.305346  0.198917  0.433232  1
  F  F20  1  0.566696  0.930160  0.697610  1
  F  F21  1  0.302535  0.670777  0.425753  1
  F  F22  1  0.329223  0.697465  0.925753  1
  F  F23  1  0.796030  0.154106  0.937755  1
  F  F24  1  0.060025  0.942774  0.694196  1
  F  F25  1  0.057226  0.939975  0.194196  1
  F  F26  1  0.297815  0.179744  0.928963  1
  F  F27  1  0.061764  0.416186  0.692767  1
