# generated using pymatgen
data_Li4VS4
_symmetry_space_group_name_H-M   'P 1'
_cell_length_a   6.15387121
_cell_length_b   7.75857345
_cell_length_c   14.24964021
_cell_angle_alpha   90.00000000
_cell_angle_beta   90.00000000
_cell_angle_gamma   90.00000000
_symmetry_Int_Tables_number   1
_chemical_formula_structural   Li4VS4
_chemical_formula_sum   'Li16 V4 S16'
_cell_volume   680.35280216
_cell_formula_units_Z   4
loop_
 _symmetry_equiv_pos_site_id
 _symmetry_equiv_pos_as_xyz
  1  'x, y, z'
loop_
 _atom_site_type_symbol
 _atom_site_label
 _atom_site_symmetry_multiplicity
 _atom_site_fract_x
 _atom_site_fract_y
 _atom_site_fract_z
 _atom_site_occupancy
  Li  Li0  1  0.500000  0.000000  0.000000  1
  Li  Li1  1  0.500000  0.500000  0.000000  1
  Li  Li2  1  0.130448  0.750000  0.086845  1
  Li  Li3  1  0.695553  0.501801  0.177870  1
  Li  Li4  1  0.695553  0.998199  0.177870  1
  Li  Li5  1  0.195553  0.001801  0.322130  1
  Li  Li6  1  0.195553  0.498199  0.322130  1
  Li  Li7  1  0.630448  0.250000  0.413155  1
  Li  Li8  1  0.000000  0.000000  0.500000  1
  Li  Li9  1  0.000000  0.500000  0.500000  1
  Li  Li10  1  0.369552  0.750000  0.586845  1
  Li  Li11  1  0.804447  0.501801  0.677870  1
  Li  Li12  1  0.804447  0.998199  0.677870  1
  Li  Li13  1  0.304447  0.001801  0.822130  1
  Li  Li14  1  0.304447  0.498199  0.822130  1
  Li  Li15  1  0.869552  0.250000  0.913155  1
  V  V16  1  0.151089  0.250000  0.087097  1
  V  V17  1  0.651089  0.750000  0.412903  1
  V  V18  1  0.348911  0.250000  0.587097  1
  V  V19  1  0.848911  0.750000  0.912903  1
  S  S20  1  0.734429  0.750000  0.062354  1
  S  S21  1  0.791008  0.250000  0.082419  1
  S  S22  1  0.281526  0.485857  0.155942  1
  S  S23  1  0.281526  0.014143  0.155942  1
  S  S24  1  0.781526  0.985857  0.344058  1
  S  S25  1  0.781526  0.514143  0.344058  1
  S  S26  1  0.291008  0.750000  0.417581  1
  S  S27  1  0.234429  0.250000  0.437646  1
  S  S28  1  0.765571  0.750000  0.562354  1
  S  S29  1  0.708992  0.250000  0.582419  1
  S  S30  1  0.218474  0.485857  0.655942  1
  S  S31  1  0.218474  0.014143  0.655942  1
  S  S32  1  0.718474  0.985857  0.844058  1
  S  S33  1  0.718474  0.514143  0.844058  1
  S  S34  1  0.208992  0.750000  0.917581  1
  S  S35  1  0.265571  0.250000  0.937646  1
