# generated using pymatgen
data_Li6CrCoP2(CO7)2
_symmetry_space_group_name_H-M   'P 1'
_cell_length_a   5.00789098
_cell_length_b   6.46127041
_cell_length_c   8.55661077
_cell_angle_alpha   90.00000000
_cell_angle_beta   94.41831841
_cell_angle_gamma   90.00000000
_symmetry_Int_Tables_number   1
_chemical_formula_structural   Li6CrCoP2(CO7)2
_chemical_formula_sum   'Li6 Cr1 Co1 P2 C2 O14'
_cell_volume   276.04633776
_cell_formula_units_Z   1
loop_
 _symmetry_equiv_pos_site_id
 _symmetry_equiv_pos_as_xyz
  1  'x, y, z'
loop_
 _atom_site_type_symbol
 _atom_site_label
 _atom_site_symmetry_multiplicity
 _atom_site_fract_x
 _atom_site_fract_y
 _atom_site_fract_z
 _atom_site_occupancy
  Li  Li0  1  0.761699  0.500000  0.902368  1
  Li  Li1  1  0.248653  0.272949  0.725847  1
  Li  Li2  1  0.248653  0.727051  0.725847  1
  Li  Li3  1  0.750260  0.773382  0.275012  1
  Li  Li4  1  0.750260  0.226618  0.275012  1
  Li  Li5  1  0.237619  0.000000  0.093864  1
  Cr  Cr6  1  0.214323  0.500000  0.335752  1
  Co  Co7  1  0.790101  0.000000  0.668556  1
  P  P8  1  0.719756  0.500000  0.589310  1
  P  P9  1  0.282101  0.000000  0.414467  1
  C  C10  1  0.703443  0.000000  0.963539  1
  C  C11  1  0.294545  0.500000  0.032016  1
  O  O12  1  0.948693  0.000000  0.927224  1
  O  O13  1  0.362097  0.500000  0.888453  1
  O  O14  1  0.514414  0.000000  0.849095  1
  O  O15  1  0.828679  0.311810  0.689676  1
  O  O16  1  0.828679  0.688190  0.689676  1
  O  O17  1  0.177593  0.000000  0.580044  1
  O  O18  1  0.408935  0.500000  0.579634  1
  O  O19  1  0.594458  0.000000  0.432239  1
  O  O20  1  0.813593  0.500000  0.421407  1
  O  O21  1  0.175304  0.185834  0.311402  1
  O  O22  1  0.175304  0.814166  0.311402  1
  O  O23  1  0.482793  0.500000  0.146774  1
  O  O24  1  0.641035  0.000000  0.108233  1
  O  O25  1  0.047008  0.500000  0.063151  1
