# generated using pymatgen
data_Li6V2O5F2
_symmetry_space_group_name_H-M   'P 1'
_cell_length_a   5.89980787
_cell_length_b   5.90582138
_cell_length_c   9.98269883
_cell_angle_alpha   97.82538928
_cell_angle_beta   91.74494752
_cell_angle_gamma   119.01315298
_symmetry_Int_Tables_number   1
_chemical_formula_structural   Li6V2O5F2
_chemical_formula_sum   'Li12 V4 O10 F4'
_cell_volume   299.47232184
_cell_formula_units_Z   2
loop_
 _symmetry_equiv_pos_site_id
 _symmetry_equiv_pos_as_xyz
  1  'x, y, z'
loop_
 _atom_site_type_symbol
 _atom_site_label
 _atom_site_symmetry_multiplicity
 _atom_site_fract_x
 _atom_site_fract_y
 _atom_site_fract_z
 _atom_site_occupancy
  Li  Li0  1  0.794963  0.866641  0.910037  1
  Li  Li1  1  0.525127  0.860825  0.396773  1
  Li  Li2  1  0.085488  0.885021  0.422848  1
  Li  Li3  1  0.316303  0.870277  0.904594  1
  Li  Li4  1  0.663949  0.586850  0.106107  1
  Li  Li5  1  0.918823  0.586339  0.603747  1
  Li  Li6  1  0.081177  0.413661  0.396253  1
  Li  Li7  1  0.336051  0.413150  0.893893  1
  Li  Li8  1  0.683697  0.129723  0.095406  1
  Li  Li9  1  0.914512  0.114979  0.577152  1
  Li  Li10  1  0.474873  0.139175  0.603227  1
  Li  Li11  1  0.205037  0.133359  0.089963  1
  V  V12  1  0.202657  0.619968  0.121883  1
  V  V13  1  0.445217  0.615611  0.624609  1
  V  V14  1  0.554783  0.384389  0.375391  1
  V  V15  1  0.797343  0.380032  0.878117  1
  O  O16  1  0.499821  0.758484  0.021601  1
  O  O17  1  0.260883  0.756948  0.529314  1
  O  O18  1  0.735957  0.731653  0.493084  1
  O  O19  1  0.350520  0.481789  0.250852  1
  O  O20  1  0.002400  0.736564  0.008610  1
  O  O21  1  0.997600  0.263436  0.991390  1
  O  O22  1  0.649480  0.518211  0.749148  1
  O  O23  1  0.264043  0.268347  0.506916  1
  O  O24  1  0.739117  0.243052  0.470686  1
  O  O25  1  0.500179  0.241516  0.978399  1
  F  F26  1  0.866041  0.499214  0.243096  1
  F  F27  1  0.133959  0.500786  0.756904  1
  F  F28  1  0.345726  0.995725  0.256336  1
  F  F29  1  0.654274  0.004275  0.743664  1
