# generated using pymatgen
data_LiTi(PO3)4
_symmetry_space_group_name_H-M   'P 1'
_cell_length_a   10.06566961
_cell_length_b   9.14943958
_cell_length_c   12.09328069
_cell_angle_alpha   90.00000000
_cell_angle_beta   125.14751267
_cell_angle_gamma   90.00000000
_symmetry_Int_Tables_number   1
_chemical_formula_structural   LiTi(PO3)4
_chemical_formula_sum   'Li4 Ti4 P16 O48'
_cell_volume   910.66941043
_cell_formula_units_Z   4
loop_
 _symmetry_equiv_pos_site_id
 _symmetry_equiv_pos_as_xyz
  1  'x, y, z'
loop_
 _atom_site_type_symbol
 _atom_site_label
 _atom_site_symmetry_multiplicity
 _atom_site_fract_x
 _atom_site_fract_y
 _atom_site_fract_z
 _atom_site_occupancy
  Li  Li0  1  0.154814  0.449263  0.009580  1
  Li  Li1  1  0.154814  0.050737  0.509580  1
  Li  Li2  1  0.845186  0.949263  0.490420  1
  Li  Li3  1  0.845186  0.550737  0.990420  1
  Ti  Ti4  1  0.815091  0.196893  0.812044  1
  Ti  Ti5  1  0.184909  0.696893  0.687956  1
  Ti  Ti6  1  0.815091  0.303107  0.312044  1
  Ti  Ti7  1  0.184909  0.803107  0.187956  1
  P  P8  1  0.816765  0.834298  0.858605  1
  P  P9  1  0.295742  0.884019  0.974382  1
  P  P10  1  0.516138  0.997056  0.759543  1
  P  P11  1  0.483862  0.497056  0.740457  1
  P  P12  1  0.097212  0.103063  0.757165  1
  P  P13  1  0.902788  0.603063  0.742835  1
  P  P14  1  0.183235  0.334298  0.641395  1
  P  P15  1  0.295742  0.615981  0.474382  1
  P  P16  1  0.704258  0.384019  0.525618  1
  P  P17  1  0.816765  0.665702  0.358605  1
  P  P18  1  0.097212  0.396937  0.257165  1
  P  P19  1  0.902788  0.896937  0.242835  1
  P  P20  1  0.516138  0.502944  0.259543  1
  P  P21  1  0.483862  0.002944  0.240457  1
  P  P22  1  0.704258  0.115981  0.025618  1
  P  P23  1  0.183235  0.165702  0.141395  1
  O  O24  1  0.915453  0.754720  0.991479  1
  O  O25  1  0.798372  0.183442  0.976246  1
  O  O26  1  0.534085  0.057099  0.894470  1
  O  O27  1  0.632598  0.852799  0.814660  1
  O  O28  1  0.656342  0.452340  0.839368  1
  O  O29  1  0.326244  0.798522  0.885357  1
  O  O30  1  0.217076  0.040786  0.906376  1
  O  O31  1  0.412533  0.608636  0.784369  1
  O  O32  1  0.587467  0.108636  0.715631  1
  O  O33  1  0.215526  0.223908  0.758381  1
  O  O34  1  0.343658  0.952340  0.660632  1
  O  O35  1  0.948672  0.486096  0.846037  1
  O  O36  1  0.367402  0.352799  0.685340  1
  O  O37  1  0.878564  0.978806  0.846133  1
  O  O38  1  0.465915  0.557099  0.605530  1
  O  O39  1  0.037650  0.686538  0.752268  1
  O  O40  1  0.962350  0.186538  0.747732  1
  O  O41  1  0.121436  0.478806  0.653867  1
  O  O42  1  0.051328  0.986096  0.653963  1
  O  O43  1  0.784474  0.723908  0.741619  1
  O  O44  1  0.201628  0.683442  0.523754  1
  O  O45  1  0.084547  0.254720  0.508521  1
  O  O46  1  0.326244  0.701478  0.385357  1
  O  O47  1  0.782924  0.540786  0.593624  1
  O  O48  1  0.217076  0.459214  0.406376  1
  O  O49  1  0.673756  0.298522  0.614643  1
  O  O50  1  0.915453  0.745280  0.491479  1
  O  O51  1  0.798372  0.316558  0.476246  1
  O  O52  1  0.215526  0.276092  0.258381  1
  O  O53  1  0.948672  0.013904  0.346037  1
  O  O54  1  0.878564  0.521194  0.346133  1
  O  O55  1  0.037650  0.813462  0.252268  1
  O  O56  1  0.962350  0.313462  0.247732  1
  O  O57  1  0.534085  0.442901  0.394470  1
  O  O58  1  0.121436  0.021194  0.153867  1
  O  O59  1  0.632598  0.647201  0.314660  1
  O  O60  1  0.051328  0.513904  0.153963  1
  O  O61  1  0.656342  0.047660  0.339368  1
  O  O62  1  0.784474  0.776092  0.241619  1
  O  O63  1  0.412533  0.891364  0.284369  1
  O  O64  1  0.587467  0.391364  0.215631  1
  O  O65  1  0.782924  0.959214  0.093624  1
  O  O66  1  0.673756  0.201478  0.114643  1
  O  O67  1  0.343658  0.547660  0.160632  1
  O  O68  1  0.367402  0.147201  0.185340  1
  O  O69  1  0.465915  0.942901  0.105530  1
  O  O70  1  0.201628  0.816558  0.023754  1
  O  O71  1  0.084547  0.245280  0.008521  1
