# generated using pymatgen
data_Na5LiFe2P2(CO7)2
_symmetry_space_group_name_H-M   'P 1'
_cell_length_a   5.18411095
_cell_length_b   6.70115829
_cell_length_c   8.97891162
_cell_angle_alpha   90.00000000
_cell_angle_beta   90.98042028
_cell_angle_gamma   90.00000000
_symmetry_Int_Tables_number   1
_chemical_formula_structural   Na5LiFe2P2(CO7)2
_chemical_formula_sum   'Na5 Li1 Fe2 P2 C2 O14'
_cell_volume   311.87766684
_cell_formula_units_Z   1
loop_
 _symmetry_equiv_pos_site_id
 _symmetry_equiv_pos_as_xyz
  1  'x, y, z'
loop_
 _atom_site_type_symbol
 _atom_site_label
 _atom_site_symmetry_multiplicity
 _atom_site_fract_x
 _atom_site_fract_y
 _atom_site_fract_z
 _atom_site_occupancy
  Na  Na0  1  0.249618  0.252518  0.737091  1
  Na  Na1  1  0.249618  0.747482  0.737091  1
  Na  Na2  1  0.750092  0.752030  0.262978  1
  Na  Na3  1  0.750092  0.247970  0.262978  1
  Na  Na4  1  0.236090  0.000000  0.081668  1
  Li  Li5  1  0.761741  0.500000  0.916439  1
  Fe  Fe6  1  0.779614  0.000000  0.648567  1
  Fe  Fe7  1  0.219983  0.500000  0.352391  1
  P  P8  1  0.702955  0.500000  0.590316  1
  P  P9  1  0.296974  0.000000  0.412816  1
  C  C10  1  0.728875  0.000000  0.940806  1
  C  C11  1  0.271652  0.500000  0.055698  1
  O  O12  1  0.297766  0.500000  0.912540  1
  O  O13  1  0.953014  0.000000  0.877138  1
  O  O14  1  0.520501  0.000000  0.857541  1
  O  O15  1  0.780344  0.315124  0.687570  1
  O  O16  1  0.780344  0.684876  0.687570  1
  O  O17  1  0.163794  0.000000  0.565346  1
  O  O18  1  0.404765  0.500000  0.563907  1
  O  O19  1  0.595816  0.000000  0.436882  1
  O  O20  1  0.836434  0.500000  0.437375  1
  O  O21  1  0.219030  0.813496  0.317491  1
  O  O22  1  0.219030  0.186504  0.317491  1
  O  O23  1  0.475988  0.500000  0.142261  1
  O  O24  1  0.041948  0.500000  0.113479  1
  O  O25  1  0.713922  0.000000  0.084572  1
