# generated using pymatgen
data_Na3CoO3
_symmetry_space_group_name_H-M   'P 1'
_cell_length_a   3.99372960
_cell_length_b   10.99460123
_cell_length_c   10.16034862
_cell_angle_alpha   90.00000000
_cell_angle_beta   101.72219321
_cell_angle_gamma   90.00000000
_symmetry_Int_Tables_number   1
_chemical_formula_structural   Na3CoO3
_chemical_formula_sum   'Na12 Co4 O12'
_cell_volume   436.83094826
_cell_formula_units_Z   4
loop_
 _symmetry_equiv_pos_site_id
 _symmetry_equiv_pos_as_xyz
  1  'x, y, z'
loop_
 _atom_site_type_symbol
 _atom_site_label
 _atom_site_symmetry_multiplicity
 _atom_site_fract_x
 _atom_site_fract_y
 _atom_site_fract_z
 _atom_site_occupancy
  Na  Na0  1  0.096882  0.429607  0.636472  1
  Na  Na1  1  0.277988  0.985026  0.616220  1
  Na  Na2  1  0.499593  0.230232  0.979935  1
  Na  Na3  1  0.096882  0.070393  0.136472  1
  Na  Na4  1  0.277988  0.514974  0.116220  1
  Na  Na5  1  0.500407  0.730232  0.520065  1
  Na  Na6  1  0.499593  0.269768  0.479935  1
  Na  Na7  1  0.722012  0.485026  0.883780  1
  Na  Na8  1  0.903118  0.929607  0.863528  1
  Na  Na9  1  0.500407  0.769768  0.020065  1
  Na  Na10  1  0.722012  0.014974  0.383780  1
  Na  Na11  1  0.903118  0.570393  0.363528  1
  Co  Co12  1  0.189572  0.689658  0.754521  1
  Co  Co13  1  0.189572  0.810342  0.254521  1
  Co  Co14  1  0.810428  0.189658  0.745479  1
  Co  Co15  1  0.810428  0.310342  0.245479  1
  O  O16  1  0.028250  0.637651  0.589048  1
  O  O17  1  0.229032  0.591365  0.896012  1
  O  O18  1  0.028250  0.862349  0.089048  1
  O  O19  1  0.363327  0.838657  0.784377  1
  O  O20  1  0.229032  0.908635  0.396012  1
  O  O21  1  0.363327  0.661343  0.284377  1
  O  O22  1  0.636673  0.338657  0.715623  1
  O  O23  1  0.770968  0.091365  0.603988  1
  O  O24  1  0.636673  0.161343  0.215623  1
  O  O25  1  0.971750  0.137651  0.910952  1
  O  O26  1  0.770968  0.408635  0.103988  1
  O  O27  1  0.971750  0.362349  0.410952  1
