# generated using pymatgen
data_Mg(IO3)2
_symmetry_space_group_name_H-M   'P 1'
_cell_length_a   6.72020342
_cell_length_b   11.05572741
_cell_length_c   8.37196024
_cell_angle_alpha   90.00000000
_cell_angle_beta   118.04835861
_cell_angle_gamma   90.00000000
_symmetry_Int_Tables_number   1
_chemical_formula_structural   Mg(IO3)2
_chemical_formula_sum   'Mg4 I8 O24'
_cell_volume   548.95497850
_cell_formula_units_Z   4
loop_
 _symmetry_equiv_pos_site_id
 _symmetry_equiv_pos_as_xyz
  1  'x, y, z'
loop_
 _atom_site_type_symbol
 _atom_site_label
 _atom_site_symmetry_multiplicity
 _atom_site_fract_x
 _atom_site_fract_y
 _atom_site_fract_z
 _atom_site_occupancy
  Mg  Mg0  1  0.135069  0.903276  0.937929  1
  Mg  Mg1  1  0.864931  0.403276  0.562071  1
  Mg  Mg2  1  0.135069  0.596724  0.437929  1
  Mg  Mg3  1  0.864931  0.096724  0.062071  1
  I  I4  1  0.354508  0.207365  0.072662  1
  I  I5  1  0.645492  0.707365  0.427338  1
  I  I6  1  0.776365  0.081773  0.531861  1
  I  I7  1  0.223635  0.581773  0.968139  1
  I  I8  1  0.776365  0.418227  0.031861  1
  I  I9  1  0.223635  0.918227  0.468139  1
  I  I10  1  0.354508  0.292635  0.572662  1
  I  I11  1  0.645492  0.792635  0.927338  1
  O  O12  1  0.147020  0.081778  0.017680  1
  O  O13  1  0.368179  0.897805  0.330123  1
  O  O14  1  0.414186  0.614253  0.406885  1
  O  O15  1  0.445703  0.218261  0.315330  1
  O  O16  1  0.554297  0.718261  0.184670  1
  O  O17  1  0.047356  0.719256  0.899608  1
  O  O18  1  0.017993  0.463748  0.832524  1
  O  O19  1  0.585814  0.114253  0.093115  1
  O  O20  1  0.982007  0.963748  0.667476  1
  O  O21  1  0.952644  0.219256  0.600392  1
  O  O22  1  0.631821  0.397805  0.169877  1
  O  O23  1  0.852980  0.581778  0.482320  1
  O  O24  1  0.147020  0.418222  0.517680  1
  O  O25  1  0.368179  0.602195  0.830123  1
  O  O26  1  0.047356  0.780744  0.399608  1
  O  O27  1  0.017993  0.036252  0.332524  1
  O  O28  1  0.414186  0.885747  0.906885  1
  O  O29  1  0.982007  0.536252  0.167476  1
  O  O30  1  0.952644  0.280744  0.100392  1
  O  O31  1  0.445703  0.281739  0.815330  1
  O  O32  1  0.554297  0.781739  0.684670  1
  O  O33  1  0.585814  0.385747  0.593115  1
  O  O34  1  0.631821  0.102195  0.669877  1
  O  O35  1  0.852980  0.918222  0.982320  1
