# generated using pymatgen
data_Na3Ti2(PO4)3
_symmetry_space_group_name_H-M   'P 1'
_cell_length_a   9.15021646
_cell_length_b   9.15021646
_cell_length_c   9.15021646
_cell_angle_alpha   58.19727458
_cell_angle_beta   58.19727458
_cell_angle_gamma   58.19727458
_symmetry_Int_Tables_number   1
_chemical_formula_structural   Na3Ti2(PO4)3
_chemical_formula_sum   'Na6 Ti4 P6 O24'
_cell_volume   519.34760663
_cell_formula_units_Z   2
loop_
 _symmetry_equiv_pos_site_id
 _symmetry_equiv_pos_as_xyz
  1  'x, y, z'
loop_
 _atom_site_type_symbol
 _atom_site_label
 _atom_site_symmetry_multiplicity
 _atom_site_fract_x
 _atom_site_fract_y
 _atom_site_fract_z
 _atom_site_occupancy
  Na  Na0  1  0.251516  0.661841  0.913006  1
  Na  Na1  1  0.338159  0.086994  0.748484  1
  Na  Na2  1  0.086994  0.748484  0.338159  1
  Na  Na3  1  0.913006  0.251516  0.661841  1
  Na  Na4  1  0.661841  0.913006  0.251516  1
  Na  Na5  1  0.748484  0.338159  0.086994  1
  Ti  Ti6  1  0.147657  0.147657  0.147657  1
  Ti  Ti7  1  0.350322  0.350322  0.350322  1
  Ti  Ti8  1  0.649678  0.649678  0.649678  1
  Ti  Ti9  1  0.852343  0.852343  0.852343  1
  P  P10  1  0.037081  0.464852  0.751744  1
  P  P11  1  0.535148  0.248256  0.962919  1
  P  P12  1  0.248256  0.962919  0.535148  1
  P  P13  1  0.751744  0.037081  0.464852  1
  P  P14  1  0.464852  0.751744  0.037081  1
  P  P15  1  0.962919  0.535148  0.248256  1
  O  O16  1  0.236186  0.149102  0.517034  1
  O  O17  1  0.149102  0.517034  0.236186  1
  O  O18  1  0.010894  0.625497  0.786612  1
  O  O19  1  0.089785  0.278851  0.904007  1
  O  O20  1  0.517034  0.236186  0.149102  1
  O  O21  1  0.095993  0.910215  0.721149  1
  O  O22  1  0.374503  0.213388  0.989106  1
  O  O23  1  0.182868  0.459750  0.561246  1
  O  O24  1  0.540250  0.438754  0.817132  1
  O  O25  1  0.213388  0.989106  0.374503  1
  O  O26  1  0.721149  0.095993  0.910215  1
  O  O27  1  0.438754  0.817132  0.540250  1
  O  O28  1  0.561246  0.182868  0.459750  1
  O  O29  1  0.278851  0.904007  0.089785  1
  O  O30  1  0.786612  0.010894  0.625497  1
  O  O31  1  0.459750  0.561246  0.182868  1
  O  O32  1  0.817132  0.540250  0.438754  1
  O  O33  1  0.625497  0.786612  0.010894  1
  O  O34  1  0.904007  0.089785  0.278851  1
  O  O35  1  0.482966  0.763814  0.850898  1
  O  O36  1  0.910215  0.721149  0.095993  1
  O  O37  1  0.989106  0.374503  0.213388  1
  O  O38  1  0.850898  0.482966  0.763814  1
  O  O39  1  0.763814  0.850898  0.482966  1
