# generated using pymatgen
data_Mn2PO5
_symmetry_space_group_name_H-M   'P 1'
_cell_length_a   5.10144281
_cell_length_b   6.50027122
_cell_length_c   6.94198802
_cell_angle_alpha   110.07009584
_cell_angle_beta   101.50528324
_cell_angle_gamma   104.82459614
_symmetry_Int_Tables_number   1
_chemical_formula_structural   Mn2PO5
_chemical_formula_sum   'Mn4 P2 O10'
_cell_volume   198.28899536
_cell_formula_units_Z   2
loop_
 _symmetry_equiv_pos_site_id
 _symmetry_equiv_pos_as_xyz
  1  'x, y, z'
loop_
 _atom_site_type_symbol
 _atom_site_label
 _atom_site_symmetry_multiplicity
 _atom_site_fract_x
 _atom_site_fract_y
 _atom_site_fract_z
 _atom_site_occupancy
  Mn  Mn0  1  0.833796  0.736293  0.376529  1
  Mn  Mn1  1  0.633201  0.044772  0.742242  1
  Mn  Mn2  1  0.366799  0.955228  0.257758  1
  Mn  Mn3  1  0.166204  0.263707  0.623471  1
  P  P4  1  0.834368  0.613708  0.814796  1
  P  P5  1  0.165632  0.386292  0.185204  1
  O  O6  1  0.917536  0.447280  0.258586  1
  O  O7  1  0.772628  0.042343  0.462732  1
  O  O8  1  0.944897  0.779981  0.057786  1
  O  O9  1  0.590533  0.386596  0.780981  1
  O  O10  1  0.707589  0.728860  0.676088  1
  O  O11  1  0.292411  0.271140  0.323912  1
  O  O12  1  0.409467  0.613404  0.219019  1
  O  O13  1  0.055103  0.220019  0.942214  1
  O  O14  1  0.227372  0.957657  0.537268  1
  O  O15  1  0.082464  0.552720  0.741414  1
