# generated using pymatgen
data_Co2NiO6
_symmetry_space_group_name_H-M   'P 1'
_cell_length_a   6.37293490
_cell_length_b   6.37293490
_cell_length_c   5.63997598
_cell_angle_alpha   77.08402826
_cell_angle_beta   102.91597174
_cell_angle_gamma   154.55871694
_symmetry_Int_Tables_number   1
_chemical_formula_structural   Co2NiO6
_chemical_formula_sum   'Co2 Ni1 O6'
_cell_volume   95.78423175
_cell_formula_units_Z   1
loop_
 _symmetry_equiv_pos_site_id
 _symmetry_equiv_pos_as_xyz
  1  'x, y, z'
loop_
 _atom_site_type_symbol
 _atom_site_label
 _atom_site_symmetry_multiplicity
 _atom_site_fract_x
 _atom_site_fract_y
 _atom_site_fract_z
 _atom_site_occupancy
  Co  Co0  1  0.165999  0.834001  0.332937  1
  Co  Co1  1  0.834001  0.165999  0.667063  1
  Ni  Ni2  1  0.500000  0.500000  0.000000  1
  O  O3  1  0.654163  0.345837  0.106022  1
  O  O4  1  0.990728  0.009272  0.774768  1
  O  O5  1  0.322771  0.677229  0.437139  1
  O  O6  1  0.009272  0.990728  0.225232  1
  O  O7  1  0.345837  0.654163  0.893978  1
  O  O8  1  0.677229  0.322771  0.562861  1
