# generated using pymatgen
data_Cs2U2Mo3O16
_symmetry_space_group_name_H-M   'P 1'
_cell_length_a   10.34783771
_cell_length_b   10.34783771
_cell_length_c   16.98591416
_cell_angle_alpha   90.00000000
_cell_angle_beta   90.00000000
_cell_angle_gamma   90.00000000
_symmetry_Int_Tables_number   1
_chemical_formula_structural   Cs2U2Mo3O16
_chemical_formula_sum   'Cs8 U8 Mo12 O64'
_cell_volume   1818.81338964
_cell_formula_units_Z   4
loop_
 _symmetry_equiv_pos_site_id
 _symmetry_equiv_pos_as_xyz
  1  'x, y, z'
loop_
 _atom_site_type_symbol
 _atom_site_label
 _atom_site_symmetry_multiplicity
 _atom_site_fract_x
 _atom_site_fract_y
 _atom_site_fract_z
 _atom_site_occupancy
  Cs  Cs0  1  0.500000  0.000000  0.847190  1
  Cs  Cs1  1  0.500000  0.000000  0.347190  1
  Cs  Cs2  1  0.000000  0.500000  0.152810  1
  Cs  Cs3  1  0.500000  0.500000  0.246639  1
  Cs  Cs4  1  0.000000  0.000000  0.253361  1
  Cs  Cs5  1  0.500000  0.500000  0.753361  1
  Cs  Cs6  1  0.000000  0.000000  0.746639  1
  Cs  Cs7  1  0.000000  0.500000  0.652810  1
  U  U8  1  0.292437  0.194421  0.083946  1
  U  U9  1  0.707563  0.805579  0.083946  1
  U  U10  1  0.792437  0.694421  0.416054  1
  U  U11  1  0.694421  0.207563  0.583946  1
  U  U12  1  0.207563  0.305579  0.416054  1
  U  U13  1  0.805579  0.292437  0.916054  1
  U  U14  1  0.305579  0.792437  0.583946  1
  U  U15  1  0.194421  0.707563  0.916054  1
  Mo  Mo16  1  0.842849  0.331644  0.381519  1
  Mo  Mo17  1  0.657151  0.168356  0.118481  1
  Mo  Mo18  1  0.157151  0.668356  0.381519  1
  Mo  Mo19  1  0.331644  0.157151  0.618481  1
  Mo  Mo20  1  0.342849  0.831644  0.118481  1
  Mo  Mo21  1  0.831644  0.657151  0.881519  1
  Mo  Mo22  1  0.500000  0.500000  0.500000  1
  Mo  Mo23  1  0.500000  0.500000  0.000000  1
  Mo  Mo24  1  0.168356  0.342849  0.881519  1
  Mo  Mo25  1  0.000000  0.000000  0.500000  1
  Mo  Mo26  1  0.668356  0.842849  0.618481  1
  Mo  Mo27  1  0.000000  0.000000  0.000000  1
  O  O28  1  0.234064  0.796519  0.333605  1
  O  O29  1  0.484207  0.233586  0.645546  1
  O  O30  1  0.203481  0.234064  0.666395  1
  O  O31  1  0.892698  0.362029  0.998453  1
  O  O32  1  0.695445  0.826213  0.513692  1
  O  O33  1  0.984207  0.733586  0.854454  1
  O  O34  1  0.619320  0.429017  0.936931  1
  O  O35  1  0.664773  0.011785  0.650355  1
  O  O36  1  0.779219  0.715374  0.164849  1
  O  O37  1  0.720781  0.784626  0.335151  1
  O  O38  1  0.266414  0.984207  0.145546  1
  O  O39  1  0.233586  0.515793  0.354454  1
  O  O40  1  0.326213  0.804555  0.013692  1
  O  O41  1  0.362029  0.107302  0.001547  1
  O  O42  1  0.570983  0.619320  0.063069  1
  O  O43  1  0.862029  0.607302  0.498453  1
  O  O44  1  0.765936  0.203481  0.333605  1
  O  O45  1  0.380680  0.570983  0.936931  1
  O  O46  1  0.835227  0.488215  0.849645  1
  O  O47  1  0.703481  0.734064  0.833605  1
  O  O48  1  0.383337  0.577736  0.562050  1
  O  O49  1  0.116663  0.922264  0.937950  1
  O  O50  1  0.988215  0.664773  0.349645  1
  O  O51  1  0.215374  0.720781  0.664849  1
  O  O52  1  0.296519  0.265936  0.833605  1
  O  O53  1  0.607302  0.137971  0.501547  1
  O  O54  1  0.826213  0.304555  0.486308  1
  O  O55  1  0.220781  0.284626  0.164849  1
  O  O56  1  0.673787  0.195445  0.013692  1
  O  O57  1  0.077736  0.116663  0.062050  1
  O  O58  1  0.422264  0.383337  0.437950  1
  O  O59  1  0.279219  0.215374  0.335151  1
  O  O60  1  0.429017  0.380680  0.063069  1
  O  O61  1  0.637971  0.892698  0.001547  1
  O  O62  1  0.392698  0.862029  0.501547  1
  O  O63  1  0.070983  0.119320  0.436931  1
  O  O64  1  0.880680  0.070983  0.563069  1
  O  O65  1  0.164773  0.511785  0.849645  1
  O  O66  1  0.796519  0.765936  0.666395  1
  O  O67  1  0.015793  0.266414  0.854454  1
  O  O68  1  0.804555  0.673787  0.986308  1
  O  O69  1  0.011785  0.335227  0.349645  1
  O  O70  1  0.119320  0.929017  0.563069  1
  O  O71  1  0.488215  0.164773  0.150355  1
  O  O72  1  0.734064  0.296519  0.166395  1
  O  O73  1  0.883337  0.077736  0.937950  1
  O  O74  1  0.265936  0.703481  0.166395  1
  O  O75  1  0.511785  0.835227  0.150355  1
  O  O76  1  0.335227  0.988215  0.650355  1
  O  O77  1  0.195445  0.326213  0.986308  1
  O  O78  1  0.515793  0.766414  0.645546  1
  O  O79  1  0.784626  0.279219  0.664849  1
  O  O80  1  0.766414  0.484207  0.354454  1
  O  O81  1  0.922264  0.883337  0.062050  1
  O  O82  1  0.929017  0.880680  0.436931  1
  O  O83  1  0.304555  0.173787  0.513692  1
  O  O84  1  0.284626  0.779219  0.835151  1
  O  O85  1  0.577736  0.616663  0.437950  1
  O  O86  1  0.107302  0.637971  0.998453  1
  O  O87  1  0.715374  0.220781  0.835151  1
  O  O88  1  0.733586  0.015793  0.145546  1
  O  O89  1  0.173787  0.695445  0.486308  1
  O  O90  1  0.616663  0.422264  0.562050  1
  O  O91  1  0.137971  0.392698  0.498453  1
