# generated using pymatgen
data_Na2BiO3
_symmetry_space_group_name_H-M   'P 1'
_cell_length_a   5.95874637
_cell_length_b   5.95874637
_cell_length_c   11.32982927
_cell_angle_alpha   85.23275313
_cell_angle_beta   94.76724687
_cell_angle_gamma   60.11316455
_symmetry_Int_Tables_number   1
_chemical_formula_structural   Na2BiO3
_chemical_formula_sum   'Na8 Bi4 O12'
_cell_volume   343.94990828
_cell_formula_units_Z   4
loop_
 _symmetry_equiv_pos_site_id
 _symmetry_equiv_pos_as_xyz
  1  'x, y, z'
loop_
 _atom_site_type_symbol
 _atom_site_label
 _atom_site_symmetry_multiplicity
 _atom_site_fract_x
 _atom_site_fract_y
 _atom_site_fract_z
 _atom_site_occupancy
  Na  Na0  1  0.847054  0.321380  0.998643  1
  Na  Na1  1  0.678620  0.152946  0.498643  1
  Na  Na2  1  0.000000  0.500000  0.500000  1
  Na  Na3  1  0.916162  0.916162  0.250000  1
  Na  Na4  1  0.083838  0.083838  0.750000  1
  Na  Na5  1  0.321380  0.847054  0.501357  1
  Na  Na6  1  0.500000  0.000000  0.000000  1
  Na  Na7  1  0.152946  0.678620  0.001357  1
  Bi  Bi8  1  0.582547  0.582547  0.250000  1
  Bi  Bi9  1  0.249749  0.249749  0.250000  1
  Bi  Bi10  1  0.417453  0.417453  0.750000  1
  Bi  Bi11  1  0.750251  0.750251  0.750000  1
  O  O12  1  0.979207  0.223826  0.362214  1
  O  O13  1  0.909026  0.578338  0.141344  1
  O  O14  1  0.776174  0.020793  0.862214  1
  O  O15  1  0.504624  0.299084  0.136626  1
  O  O16  1  0.421662  0.090974  0.641344  1
  O  O17  1  0.700916  0.495376  0.636626  1
  O  O18  1  0.299084  0.504624  0.363374  1
  O  O19  1  0.578338  0.909026  0.358656  1
  O  O20  1  0.495376  0.700916  0.863374  1
  O  O21  1  0.223826  0.979207  0.137786  1
  O  O22  1  0.090974  0.421662  0.858656  1
  O  O23  1  0.020793  0.776174  0.637786  1
