# generated using pymatgen
data_LiMnPO4
_symmetry_space_group_name_H-M   'P 1'
_cell_length_a   4.39892265
_cell_length_b   4.86028212
_cell_length_c   14.70806421
_cell_angle_alpha   90.00000000
_cell_angle_beta   90.00000000
_cell_angle_gamma   90.00000000
_symmetry_Int_Tables_number   1
_chemical_formula_structural   LiMnPO4
_chemical_formula_sum   'Li4 Mn4 P4 O16'
_cell_volume   314.45848787
_cell_formula_units_Z   4
loop_
 _symmetry_equiv_pos_site_id
 _symmetry_equiv_pos_as_xyz
  1  'x, y, z'
loop_
 _atom_site_type_symbol
 _atom_site_label
 _atom_site_symmetry_multiplicity
 _atom_site_fract_x
 _atom_site_fract_y
 _atom_site_fract_z
 _atom_site_occupancy
  Li  Li0  1  0.000000  0.250000  0.248494  1
  Li  Li1  1  0.000000  0.750000  0.751506  1
  Li  Li2  1  0.500000  0.750000  0.251506  1
  Li  Li3  1  0.500000  0.250000  0.748494  1
  Mn  Mn4  1  0.000000  0.750000  0.070411  1
  Mn  Mn5  1  0.000000  0.250000  0.929589  1
  Mn  Mn6  1  0.500000  0.750000  0.570411  1
  Mn  Mn7  1  0.500000  0.250000  0.429589  1
  P  P8  1  0.000000  0.750000  0.386181  1
  P  P9  1  0.000000  0.250000  0.613819  1
  P  P10  1  0.500000  0.750000  0.886181  1
  P  P11  1  0.500000  0.250000  0.113819  1
  O  O12  1  0.817377  0.539886  0.326417  1
  O  O13  1  0.817377  0.039886  0.673583  1
  O  O14  1  0.732334  0.408197  0.054846  1
  O  O15  1  0.732334  0.908197  0.945154  1
  O  O16  1  0.767666  0.908197  0.445154  1
  O  O17  1  0.767666  0.408197  0.554846  1
  O  O18  1  0.682623  0.039886  0.173583  1
  O  O19  1  0.682623  0.539886  0.826417  1
  O  O20  1  0.317377  0.460114  0.173583  1
  O  O21  1  0.317377  0.960114  0.826417  1
  O  O22  1  0.232334  0.091803  0.554846  1
  O  O23  1  0.232334  0.591803  0.445154  1
  O  O24  1  0.267666  0.091803  0.054846  1
  O  O25  1  0.267666  0.591803  0.945154  1
  O  O26  1  0.182623  0.960114  0.326417  1
  O  O27  1  0.182623  0.460114  0.673583  1
