# generated using pymatgen
data_Mn2(SO4)3
_symmetry_space_group_name_H-M   'P 1'
_cell_length_a   9.04432936
_cell_length_b   9.04432936
_cell_length_c   9.04432936
_cell_angle_alpha   55.08772419
_cell_angle_beta   55.08772419
_cell_angle_gamma   55.08772419
_symmetry_Int_Tables_number   1
_chemical_formula_structural   Mn2(SO4)3
_chemical_formula_sum   'Mn4 S6 O24'
_cell_volume   463.36578882
_cell_formula_units_Z   2
loop_
 _symmetry_equiv_pos_site_id
 _symmetry_equiv_pos_as_xyz
  1  'x, y, z'
loop_
 _atom_site_type_symbol
 _atom_site_label
 _atom_site_symmetry_multiplicity
 _atom_site_fract_x
 _atom_site_fract_y
 _atom_site_fract_z
 _atom_site_occupancy
  Mn  Mn0  1  0.144325  0.144325  0.144325  1
  Mn  Mn1  1  0.345922  0.345922  0.345922  1
  Mn  Mn2  1  0.654078  0.654078  0.654078  1
  Mn  Mn3  1  0.855675  0.855675  0.855675  1
  S  S4  1  0.043641  0.456711  0.744000  1
  S  S5  1  0.543289  0.256000  0.956359  1
  S  S6  1  0.256000  0.956359  0.543289  1
  S  S7  1  0.744000  0.043641  0.456711  1
  S  S8  1  0.456711  0.744000  0.043641  1
  S  S9  1  0.956359  0.543289  0.256000  1
  O  O10  1  0.218352  0.149911  0.527410  1
  O  O11  1  0.149911  0.527410  0.218352  1
  O  O12  1  0.020549  0.604428  0.786199  1
  O  O13  1  0.126724  0.259629  0.870488  1
  O  O14  1  0.527410  0.218352  0.149911  1
  O  O15  1  0.129512  0.873276  0.740371  1
  O  O16  1  0.395572  0.213801  0.979451  1
  O  O17  1  0.172250  0.487838  0.536081  1
  O  O18  1  0.512162  0.463919  0.827750  1
  O  O19  1  0.213801  0.979451  0.395572  1
  O  O20  1  0.740371  0.129512  0.873276  1
  O  O21  1  0.463919  0.827750  0.512162  1
  O  O22  1  0.536081  0.172250  0.487838  1
  O  O23  1  0.259629  0.870488  0.126724  1
  O  O24  1  0.786199  0.020549  0.604428  1
  O  O25  1  0.487838  0.536081  0.172250  1
  O  O26  1  0.827750  0.512162  0.463919  1
  O  O27  1  0.604428  0.786199  0.020549  1
  O  O28  1  0.870488  0.126724  0.259629  1
  O  O29  1  0.472590  0.781648  0.850089  1
  O  O30  1  0.873276  0.740371  0.129512  1
  O  O31  1  0.979451  0.395572  0.213801  1
  O  O32  1  0.850089  0.472590  0.781648  1
  O  O33  1  0.781648  0.850089  0.472590  1
