# generated using pymatgen
data_SbAsO4
_symmetry_space_group_name_H-M   'P 1'
_cell_length_a   4.94454161
_cell_length_b   7.10932949
_cell_length_c   5.66557495
_cell_angle_alpha   90.00000000
_cell_angle_beta   96.35041612
_cell_angle_gamma   90.00000000
_symmetry_Int_Tables_number   1
_chemical_formula_structural   SbAsO4
_chemical_formula_sum   'Sb2 As2 O8'
_cell_volume   197.93638425
_cell_formula_units_Z   2
loop_
 _symmetry_equiv_pos_site_id
 _symmetry_equiv_pos_as_xyz
  1  'x, y, z'
loop_
 _atom_site_type_symbol
 _atom_site_label
 _atom_site_symmetry_multiplicity
 _atom_site_fract_x
 _atom_site_fract_y
 _atom_site_fract_z
 _atom_site_occupancy
  Sb  Sb0  1  0.184541  0.750000  0.698954  1
  Sb  Sb1  1  0.815459  0.250000  0.301046  1
  As  As2  1  0.716114  0.750000  0.111704  1
  As  As3  1  0.283886  0.250000  0.888296  1
  O  O4  1  0.817106  0.559535  0.281540  1
  O  O5  1  0.182894  0.059535  0.718460  1
  O  O6  1  0.182894  0.440465  0.718460  1
  O  O7  1  0.817106  0.940465  0.281540  1
  O  O8  1  0.815296  0.750000  0.824409  1
  O  O9  1  0.184704  0.250000  0.175591  1
  O  O10  1  0.363090  0.750000  0.044758  1
  O  O11  1  0.636910  0.250000  0.955242  1
