# generated using pymatgen
data_Li2Ni(PO3)4
_symmetry_space_group_name_H-M   'P 1'
_cell_length_a   4.92806506
_cell_length_b   7.11607008
_cell_length_c   7.58520916
_cell_angle_alpha   109.53441327
_cell_angle_beta   97.98032979
_cell_angle_gamma   110.09589004
_symmetry_Int_Tables_number   1
_chemical_formula_structural   Li2Ni(PO3)4
_chemical_formula_sum   'Li2 Ni1 P4 O12'
_cell_volume   225.54735781
_cell_formula_units_Z   1
loop_
 _symmetry_equiv_pos_site_id
 _symmetry_equiv_pos_as_xyz
  1  'x, y, z'
loop_
 _atom_site_type_symbol
 _atom_site_label
 _atom_site_symmetry_multiplicity
 _atom_site_fract_x
 _atom_site_fract_y
 _atom_site_fract_z
 _atom_site_occupancy
  Li  Li0  1  0.741191  0.758825  0.555844  1
  Li  Li1  1  0.258809  0.241175  0.444156  1
  Ni  Ni2  1  0.000000  0.000000  0.000000  1
  P  P3  1  0.366829  0.808603  0.211951  1
  P  P4  1  0.840479  0.402633  0.215701  1
  P  P5  1  0.159521  0.597367  0.784299  1
  P  P6  1  0.633171  0.191397  0.788049  1
  O  O7  1  0.651164  0.877349  0.359293  1
  O  O8  1  0.395720  0.686666  0.996562  1
  O  O9  1  0.740547  0.017198  0.794336  1
  O  O10  1  0.094159  0.622207  0.229949  1
  O  O11  1  0.024028  0.760732  0.791996  1
  O  O12  1  0.310580  0.541123  0.631425  1
  O  O13  1  0.689420  0.458877  0.368575  1
  O  O14  1  0.975972  0.239268  0.208004  1
  O  O15  1  0.905841  0.377793  0.770051  1
  O  O16  1  0.259453  0.982802  0.205664  1
  O  O17  1  0.604280  0.313334  0.003438  1
  O  O18  1  0.348836  0.122651  0.640707  1
