# generated using pymatgen
data_LiVSi4(HO6)2
_symmetry_space_group_name_H-M   'P 1'
_cell_length_a   7.40030545
_cell_length_b   8.27731305
_cell_length_c   9.05040560
_cell_angle_alpha   116.87360607
_cell_angle_beta   92.32173193
_cell_angle_gamma   91.43968663
_symmetry_Int_Tables_number   1
_chemical_formula_structural   LiVSi4(HO6)2
_chemical_formula_sum   'Li2 V2 Si8 H4 O24'
_cell_volume   493.51658238
_cell_formula_units_Z   2
loop_
 _symmetry_equiv_pos_site_id
 _symmetry_equiv_pos_as_xyz
  1  'x, y, z'
loop_
 _atom_site_type_symbol
 _atom_site_label
 _atom_site_symmetry_multiplicity
 _atom_site_fract_x
 _atom_site_fract_y
 _atom_site_fract_z
 _atom_site_occupancy
  Li  Li0  1  0.345742  0.770190  0.145431  1
  Li  Li1  1  0.654258  0.229810  0.854569  1
  V  V2  1  0.000000  0.500000  0.000000  1
  V  V3  1  0.500000  0.000000  0.000000  1
  Si  Si4  1  0.121208  0.761547  0.831676  1
  Si  Si5  1  0.236269  0.386915  0.683819  1
  Si  Si6  1  0.260073  0.202174  0.312062  1
  Si  Si7  1  0.395816  0.431097  0.175919  1
  Si  Si8  1  0.604184  0.568903  0.824081  1
  Si  Si9  1  0.739927  0.797826  0.687938  1
  Si  Si10  1  0.763731  0.613085  0.316181  1
  Si  Si11  1  0.878792  0.238453  0.168324  1
  H  H12  1  0.109067  0.775551  0.379612  1
  H  H13  1  0.198016  0.960153  0.508249  1
  H  H14  1  0.801984  0.039847  0.491751  1
  H  H15  1  0.890933  0.224449  0.620388  1
  O  O16  1  0.089804  0.341210  0.791492  1
  O  O17  1  0.063499  0.164967  0.212118  1
  O  O18  1  0.180847  0.573461  0.675085  1
  O  O19  1  0.095896  0.704767  0.983345  1
  O  O20  1  0.217442  0.830002  0.452987  1
  O  O21  1  0.232514  0.217717  0.496723  1
  O  O22  1  0.276797  0.923258  0.886925  1
  O  O23  1  0.225494  0.507046  0.110810  1
  O  O24  1  0.349718  0.395513  0.334025  1
  O  O25  1  0.442266  0.409282  0.769682  1
  O  O26  1  0.388550  0.037126  0.203203  1
  O  O27  1  0.534192  0.759384  0.968651  1
  O  O28  1  0.465808  0.240616  0.031349  1
  O  O29  1  0.611450  0.962874  0.796797  1
  O  O30  1  0.557734  0.590718  0.230318  1
  O  O31  1  0.650282  0.604487  0.665975  1
  O  O32  1  0.774506  0.492954  0.889190  1
  O  O33  1  0.723203  0.076742  0.113075  1
  O  O34  1  0.767486  0.782283  0.503277  1
  O  O35  1  0.782558  0.169998  0.547013  1
  O  O36  1  0.904104  0.295233  0.016655  1
  O  O37  1  0.819153  0.426539  0.324915  1
  O  O38  1  0.936501  0.835033  0.787882  1
  O  O39  1  0.910196  0.658790  0.208508  1
