# generated using pymatgen
data_MnPO4
_symmetry_space_group_name_H-M   'P 1'
_cell_length_a   8.62602014
_cell_length_b   8.62602014
_cell_length_c   8.62602014
_cell_angle_alpha   59.66299573
_cell_angle_beta   59.66299573
_cell_angle_gamma   59.66299573
_symmetry_Int_Tables_number   1
_chemical_formula_structural   MnPO4
_chemical_formula_sum   'Mn6 P6 O24'
_cell_volume   450.37919611
_cell_formula_units_Z   6
loop_
 _symmetry_equiv_pos_site_id
 _symmetry_equiv_pos_as_xyz
  1  'x, y, z'
loop_
 _atom_site_type_symbol
 _atom_site_label
 _atom_site_symmetry_multiplicity
 _atom_site_fract_x
 _atom_site_fract_y
 _atom_site_fract_z
 _atom_site_occupancy
  Mn  Mn0  1  0.000000  0.000000  0.000000  1
  Mn  Mn1  1  0.643752  0.643752  0.643752  1
  Mn  Mn2  1  0.143752  0.143752  0.143752  1
  Mn  Mn3  1  0.500000  0.500000  0.500000  1
  Mn  Mn4  1  0.856248  0.856248  0.856248  1
  Mn  Mn5  1  0.356248  0.356248  0.356248  1
  P  P6  1  0.250000  0.540201  0.959799  1
  P  P7  1  0.959799  0.250000  0.540201  1
  P  P8  1  0.540201  0.959799  0.250000  1
  P  P9  1  0.459799  0.040201  0.750000  1
  P  P10  1  0.040201  0.750000  0.459799  1
  P  P11  1  0.750000  0.459799  0.040201  1
  O  O12  1  0.119867  0.301422  0.511705  1
  O  O13  1  0.511705  0.119867  0.301422  1
  O  O14  1  0.301422  0.511705  0.119867  1
  O  O15  1  0.083526  0.736063  0.943695  1
  O  O16  1  0.198578  0.380133  0.988295  1
  O  O17  1  0.416474  0.556305  0.763937  1
  O  O18  1  0.943695  0.083526  0.736063  1
  O  O19  1  0.763937  0.416474  0.556305  1
  O  O20  1  0.619867  0.011705  0.801422  1
  O  O21  1  0.556305  0.763937  0.416474  1
  O  O22  1  0.263937  0.056305  0.916474  1
  O  O23  1  0.011705  0.801422  0.619867  1
  O  O24  1  0.988295  0.198578  0.380133  1
  O  O25  1  0.736063  0.943695  0.083526  1
  O  O26  1  0.443695  0.236063  0.583526  1
  O  O27  1  0.380133  0.988295  0.198578  1
  O  O28  1  0.236063  0.583526  0.443695  1
  O  O29  1  0.056305  0.916474  0.263937  1
  O  O30  1  0.583526  0.443695  0.236063  1
  O  O31  1  0.801422  0.619867  0.011705  1
  O  O32  1  0.916474  0.263937  0.056305  1
  O  O33  1  0.698578  0.488295  0.880133  1
  O  O34  1  0.488295  0.880133  0.698578  1
  O  O35  1  0.880133  0.698578  0.488295  1
