# generated using pymatgen
data_Li12CrCo3P4(CO7)4
_symmetry_space_group_name_H-M   'P 1'
_cell_length_a   8.49209308
_cell_length_b   6.45621808
_cell_length_c   10.00281815
_cell_angle_alpha   90.00000000
_cell_angle_beta   94.66431356
_cell_angle_gamma   90.00000000
_symmetry_Int_Tables_number   1
_chemical_formula_structural   Li12CrCo3P4(CO7)4
_chemical_formula_sum   'Li12 Cr1 Co3 P4 C4 O28'
_cell_volume   546.60630925
_cell_formula_units_Z   1
loop_
 _symmetry_equiv_pos_site_id
 _symmetry_equiv_pos_as_xyz
  1  'x, y, z'
loop_
 _atom_site_type_symbol
 _atom_site_label
 _atom_site_symmetry_multiplicity
 _atom_site_fract_x
 _atom_site_fract_y
 _atom_site_fract_z
 _atom_site_occupancy
  Li  Li0  1  0.900703  0.000000  0.380849  1
  Li  Li1  1  0.903615  0.000000  0.883200  1
  Li  Li2  1  0.724609  0.228402  0.124949  1
  Li  Li3  1  0.724609  0.771598  0.124949  1
  Li  Li4  1  0.725241  0.227871  0.624842  1
  Li  Li5  1  0.725241  0.772129  0.624842  1
  Li  Li6  1  0.275563  0.728499  0.373338  1
  Li  Li7  1  0.275563  0.271501  0.373338  1
  Li  Li8  1  0.275575  0.727272  0.876534  1
  Li  Li9  1  0.275575  0.272728  0.876534  1
  Li  Li10  1  0.096416  0.500000  0.117729  1
  Li  Li11  1  0.095369  0.500000  0.617844  1
  Cr  Cr12  1  0.334479  0.000000  0.607840  1
  Co  Co13  1  0.667878  0.500000  0.394382  1
  Co  Co14  1  0.668882  0.500000  0.895130  1
  Co  Co15  1  0.332615  0.000000  0.104541  1
  P  P16  1  0.586749  0.000000  0.359307  1
  P  P17  1  0.589855  0.000000  0.860950  1
  P  P18  1  0.413377  0.500000  0.139733  1
  P  P19  1  0.413939  0.500000  0.640653  1
  C  C20  1  0.963282  0.500000  0.351153  1
  C  C21  1  0.963299  0.500000  0.850831  1
  C  C22  1  0.037802  0.000000  0.149031  1
  C  C23  1  0.031362  0.000000  0.647522  1
  O  O24  1  0.926758  0.500000  0.474275  1
  O  O25  1  0.891891  0.000000  0.179576  1
  O  O26  1  0.927812  0.500000  0.973998  1
  O  O27  1  0.848228  0.500000  0.256106  1
  O  O28  1  0.887680  0.000000  0.682343  1
  O  O29  1  0.847848  0.500000  0.756163  1
  O  O30  1  0.690099  0.187296  0.411791  1
  O  O31  1  0.690099  0.812704  0.411791  1
  O  O32  1  0.691153  0.187930  0.915201  1
  O  O33  1  0.691153  0.812070  0.915201  1
  O  O34  1  0.579724  0.500000  0.088032  1
  O  O35  1  0.567438  0.000000  0.202890  1
  O  O36  1  0.579660  0.500000  0.587787  1
  O  O37  1  0.578798  0.000000  0.705386  1
  O  O38  1  0.431876  0.500000  0.296479  1
  O  O39  1  0.420038  0.000000  0.410769  1
  O  O40  1  0.432868  0.500000  0.796990  1
  O  O41  1  0.420821  0.000000  0.909843  1
  O  O42  1  0.309325  0.312884  0.087650  1
  O  O43  1  0.309325  0.687116  0.087650  1
  O  O44  1  0.309674  0.686166  0.587486  1
  O  O45  1  0.309674  0.313834  0.587486  1
  O  O46  1  0.153227  0.000000  0.244112  1
  O  O47  1  0.109215  0.500000  0.320467  1
  O  O48  1  0.148486  0.000000  0.741469  1
  O  O49  1  0.074388  0.000000  0.026083  1
  O  O50  1  0.109317  0.500000  0.819643  1
  O  O51  1  0.061829  0.000000  0.523311  1
