# generated using pymatgen
data_LiNbO3
_symmetry_space_group_name_H-M   'P 1'
_cell_length_a   5.30247711
_cell_length_b   5.56891042
_cell_length_c   15.14908233
_cell_angle_alpha   90.00000000
_cell_angle_beta   90.00000000
_cell_angle_gamma   90.00000000
_symmetry_Int_Tables_number   1
_chemical_formula_structural   LiNbO3
_chemical_formula_sum   'Li8 Nb8 O24'
_cell_volume   447.33755555
_cell_formula_units_Z   8
loop_
 _symmetry_equiv_pos_site_id
 _symmetry_equiv_pos_as_xyz
  1  'x, y, z'
loop_
 _atom_site_type_symbol
 _atom_site_label
 _atom_site_symmetry_multiplicity
 _atom_site_fract_x
 _atom_site_fract_y
 _atom_site_fract_z
 _atom_site_occupancy
  Li  Li0  1  0.749322  0.217346  0.750000  1
  Li  Li1  1  0.745356  0.250000  0.000000  1
  Li  Li2  1  0.745356  0.250000  0.500000  1
  Li  Li3  1  0.749322  0.282654  0.250000  1
  Li  Li4  1  0.250678  0.717346  0.750000  1
  Li  Li5  1  0.254644  0.750000  0.000000  1
  Li  Li6  1  0.254644  0.750000  0.500000  1
  Li  Li7  1  0.250678  0.782654  0.250000  1
  Nb  Nb8  1  0.242984  0.235066  0.625021  1
  Nb  Nb9  1  0.242984  0.235066  0.874979  1
  Nb  Nb10  1  0.242984  0.264934  0.374979  1
  Nb  Nb11  1  0.242984  0.264934  0.125021  1
  Nb  Nb12  1  0.757016  0.735066  0.625021  1
  Nb  Nb13  1  0.757016  0.735066  0.874979  1
  Nb  Nb14  1  0.757016  0.764934  0.374979  1
  Nb  Nb15  1  0.757016  0.764934  0.125021  1
  O  O16  1  0.565997  0.041001  0.155368  1
  O  O17  1  0.565997  0.041001  0.344632  1
  O  O18  1  0.935952  0.077948  0.594973  1
  O  O19  1  0.935952  0.077948  0.905027  1
  O  O20  1  0.135312  0.192011  0.250000  1
  O  O21  1  0.370294  0.250000  0.000000  1
  O  O22  1  0.370294  0.250000  0.500000  1
  O  O23  1  0.135312  0.307989  0.750000  1
  O  O24  1  0.935952  0.422052  0.094973  1
  O  O25  1  0.935952  0.422052  0.405027  1
  O  O26  1  0.565997  0.458999  0.655368  1
  O  O27  1  0.565997  0.458999  0.844632  1
  O  O28  1  0.434003  0.541001  0.155368  1
  O  O29  1  0.434003  0.541001  0.344632  1
  O  O30  1  0.064048  0.577948  0.594973  1
  O  O31  1  0.064048  0.577948  0.905027  1
  O  O32  1  0.864688  0.692011  0.250000  1
  O  O33  1  0.629706  0.750000  0.000000  1
  O  O34  1  0.629706  0.750000  0.500000  1
  O  O35  1  0.864688  0.807989  0.750000  1
  O  O36  1  0.064048  0.922052  0.405027  1
  O  O37  1  0.064048  0.922052  0.094973  1
  O  O38  1  0.434003  0.958999  0.655368  1
  O  O39  1  0.434003  0.958999  0.844632  1
