# generated using pymatgen
data_Fe6O7F6
_symmetry_space_group_name_H-M   'P 1'
_cell_length_a   7.86959744
_cell_length_b   7.86959744
_cell_length_c   9.48645694
_cell_angle_alpha   80.29112254
_cell_angle_beta   99.70887746
_cell_angle_gamma   151.85404640
_symmetry_Int_Tables_number   1
_chemical_formula_structural   Fe6O7F6
_chemical_formula_sum   'Fe6 O7 F6'
_cell_volume   272.91513286
_cell_formula_units_Z   1
loop_
 _symmetry_equiv_pos_site_id
 _symmetry_equiv_pos_as_xyz
  1  'x, y, z'
loop_
 _atom_site_type_symbol
 _atom_site_label
 _atom_site_symmetry_multiplicity
 _atom_site_fract_x
 _atom_site_fract_y
 _atom_site_fract_z
 _atom_site_occupancy
  Fe  Fe0  1  0.111977  0.888023  0.095706  1
  Fe  Fe1  1  0.173233  0.826767  0.432421  1
  Fe  Fe2  1  0.238209  0.761791  0.767262  1
  Fe  Fe3  1  0.761791  0.238209  0.232738  1
  Fe  Fe4  1  0.826767  0.173233  0.567579  1
  Fe  Fe5  1  0.888023  0.111977  0.904294  1
  O  O6  1  0.000000  0.000000  0.000000  1
  O  O7  1  0.358886  0.641114  0.885550  1
  O  O8  1  0.231977  0.768023  0.236287  1
  O  O9  1  0.293536  0.706464  0.576933  1
  O  O10  1  0.706464  0.293536  0.423067  1
  O  O11  1  0.768023  0.231977  0.763713  1
  O  O12  1  0.641114  0.358886  0.114450  1
  F  F13  1  0.167205  0.832795  0.914613  1
  F  F14  1  0.067845  0.932155  0.290799  1
  F  F15  1  0.128400  0.871600  0.614266  1
  F  F16  1  0.871600  0.128400  0.385734  1
  F  F17  1  0.932155  0.067845  0.709201  1
  F  F18  1  0.832795  0.167205  0.085387  1
