# generated using pymatgen
data_Mo(PO3)4
_symmetry_space_group_name_H-M   'P 1'
_cell_length_a   7.65523987
_cell_length_b   13.12994323
_cell_length_c   12.11260142
_cell_angle_alpha   90.00000000
_cell_angle_beta   129.26974750
_cell_angle_gamma   90.00000000
_symmetry_Int_Tables_number   1
_chemical_formula_structural   Mo(PO3)4
_chemical_formula_sum   'Mo4 P16 O48'
_cell_volume   942.53602336
_cell_formula_units_Z   4
loop_
 _symmetry_equiv_pos_site_id
 _symmetry_equiv_pos_as_xyz
  1  'x, y, z'
loop_
 _atom_site_type_symbol
 _atom_site_label
 _atom_site_symmetry_multiplicity
 _atom_site_fract_x
 _atom_site_fract_y
 _atom_site_fract_z
 _atom_site_occupancy
  Mo  Mo0  1  0.895217  0.226291  0.984825  1
  Mo  Mo1  1  0.104783  0.773709  0.015175  1
  Mo  Mo2  1  0.895217  0.273709  0.484825  1
  Mo  Mo3  1  0.104783  0.726291  0.515175  1
  P  P4  1  0.978612  0.134382  0.269756  1
  P  P5  1  0.475669  0.579493  0.775032  1
  P  P6  1  0.524331  0.079493  0.724968  1
  P  P7  1  0.021388  0.634382  0.230244  1
  P  P8  1  0.475669  0.920507  0.275032  1
  P  P9  1  0.629310  0.642700  0.219077  1
  P  P10  1  0.168280  0.412177  0.257163  1
  P  P11  1  0.021388  0.865618  0.730244  1
  P  P12  1  0.831720  0.587823  0.742837  1
  P  P13  1  0.370690  0.357300  0.780923  1
  P  P14  1  0.978612  0.365618  0.769756  1
  P  P15  1  0.168280  0.087823  0.757163  1
  P  P16  1  0.370690  0.142700  0.280923  1
  P  P17  1  0.629310  0.857300  0.719077  1
  P  P18  1  0.524331  0.420507  0.224968  1
  P  P19  1  0.831720  0.912177  0.242837  1
  O  O20  1  0.411036  0.152981  0.608078  1
  O  O21  1  0.228591  0.601082  0.640155  1
  O  O22  1  0.228591  0.898918  0.140155  1
  O  O23  1  0.468355  0.030899  0.331034  1
  O  O24  1  0.771409  0.398918  0.359845  1
  O  O25  1  0.765766  0.845120  0.659929  1
  O  O26  1  0.977489  0.481971  0.799980  1
  O  O27  1  0.771409  0.101082  0.859845  1
  O  O28  1  0.588964  0.652981  0.891922  1
  O  O29  1  0.562703  0.216278  0.364003  1
  O  O30  1  0.972814  0.847966  0.379801  1
  O  O31  1  0.915751  0.194491  0.345810  1
  O  O32  1  0.531645  0.969101  0.668966  1
  O  O33  1  0.209362  0.348755  0.620468  1
  O  O34  1  0.915751  0.305509  0.845810  1
  O  O35  1  0.027186  0.152034  0.620199  1
  O  O36  1  0.022511  0.518029  0.200020  1
  O  O37  1  0.977489  0.018029  0.299980  1
  O  O38  1  0.531645  0.530899  0.168966  1
  O  O39  1  0.832869  0.343022  0.610625  1
  O  O40  1  0.084249  0.805509  0.654190  1
  O  O41  1  0.084249  0.694491  0.154190  1
  O  O42  1  0.215224  0.373490  0.386898  1
  O  O43  1  0.437297  0.716278  0.135997  1
  O  O44  1  0.562703  0.283722  0.864003  1
  O  O45  1  0.765766  0.654880  0.159929  1
  O  O46  1  0.394008  0.449279  0.285439  1
  O  O47  1  0.832869  0.156978  0.110625  1
  O  O48  1  0.234234  0.154880  0.340071  1
  O  O49  1  0.790638  0.848755  0.879532  1
  O  O50  1  0.784776  0.626510  0.613102  1
  O  O51  1  0.437297  0.783722  0.635997  1
  O  O52  1  0.605992  0.949279  0.214561  1
  O  O53  1  0.790638  0.651245  0.379532  1
  O  O54  1  0.588964  0.847019  0.391922  1
  O  O55  1  0.394008  0.050721  0.785439  1
  O  O56  1  0.784776  0.873490  0.113102  1
  O  O57  1  0.167131  0.656978  0.389375  1
  O  O58  1  0.167131  0.843022  0.889375  1
  O  O59  1  0.605992  0.550721  0.714561  1
  O  O60  1  0.468355  0.469101  0.831034  1
  O  O61  1  0.209362  0.151245  0.120468  1
  O  O62  1  0.215224  0.126510  0.886898  1
  O  O63  1  0.411036  0.347019  0.108078  1
  O  O64  1  0.022511  0.981971  0.700020  1
  O  O65  1  0.027186  0.347966  0.120199  1
  O  O66  1  0.234234  0.345120  0.840071  1
  O  O67  1  0.972814  0.652034  0.879801  1
