# generated using pymatgen
data_Li2NiP2O7
_symmetry_space_group_name_H-M   'P 1'
_cell_length_a   8.12735281
_cell_length_b   5.03830951
_cell_length_c   13.77748829
_cell_angle_alpha   90.00000000
_cell_angle_beta   111.11302383
_cell_angle_gamma   90.00000000
_symmetry_Int_Tables_number   1
_chemical_formula_structural   Li2NiP2O7
_chemical_formula_sum   'Li8 Ni4 P8 O28'
_cell_volume   526.29096661
_cell_formula_units_Z   4
loop_
 _symmetry_equiv_pos_site_id
 _symmetry_equiv_pos_as_xyz
  1  'x, y, z'
loop_
 _atom_site_type_symbol
 _atom_site_label
 _atom_site_symmetry_multiplicity
 _atom_site_fract_x
 _atom_site_fract_y
 _atom_site_fract_z
 _atom_site_occupancy
  Li  Li0  1  0.517095  0.206436  0.170546  1
  Li  Li1  1  0.517095  0.293564  0.670546  1
  Li  Li2  1  0.073923  0.733554  0.339925  1
  Li  Li3  1  0.926077  0.233554  0.160075  1
  Li  Li4  1  0.073923  0.766446  0.839925  1
  Li  Li5  1  0.926077  0.266446  0.660075  1
  Li  Li6  1  0.482905  0.706436  0.329454  1
  Li  Li7  1  0.482905  0.793564  0.829454  1
  Ni  Ni8  1  0.779834  0.269400  0.366956  1
  Ni  Ni9  1  0.779834  0.230600  0.866956  1
  Ni  Ni10  1  0.220166  0.769400  0.133044  1
  Ni  Ni11  1  0.220166  0.730600  0.633044  1
  P  P12  1  0.683071  0.722017  0.194549  1
  P  P13  1  0.803359  0.726181  0.020625  1
  P  P14  1  0.683071  0.777983  0.694549  1
  P  P15  1  0.196641  0.226181  0.479375  1
  P  P16  1  0.803359  0.773819  0.520625  1
  P  P17  1  0.316929  0.222017  0.305451  1
  P  P18  1  0.196641  0.273819  0.979375  1
  P  P19  1  0.316929  0.277983  0.805451  1
  O  O20  1  0.503491  0.251860  0.304525  1
  O  O21  1  0.503491  0.248140  0.804525  1
  O  O22  1  0.721196  0.631207  0.417070  1
  O  O23  1  0.653432  0.771314  0.073330  1
  O  O24  1  0.750712  0.435350  0.217890  1
  O  O25  1  0.811240  0.930508  0.261307  1
  O  O26  1  0.821581  0.426696  0.008533  1
  O  O27  1  0.721196  0.868793  0.917070  1
  O  O28  1  0.653432  0.728686  0.573330  1
  O  O29  1  0.033602  0.361709  0.402775  1
  O  O30  1  0.750712  0.064650  0.717890  1
  O  O31  1  0.811240  0.569492  0.761307  1
  O  O32  1  0.966398  0.861709  0.097225  1
  O  O33  1  0.821581  0.073304  0.508533  1
  O  O34  1  0.178419  0.926696  0.491467  1
  O  O35  1  0.033602  0.138291  0.902775  1
  O  O36  1  0.188760  0.430508  0.238693  1
  O  O37  1  0.249288  0.935350  0.282110  1
  O  O38  1  0.966398  0.638291  0.597225  1
  O  O39  1  0.346568  0.271314  0.426670  1
  O  O40  1  0.278804  0.131207  0.082930  1
  O  O41  1  0.178419  0.573304  0.991467  1
  O  O42  1  0.188760  0.069492  0.738693  1
  O  O43  1  0.249288  0.564650  0.782110  1
  O  O44  1  0.346568  0.228686  0.926670  1
  O  O45  1  0.278804  0.368793  0.582930  1
  O  O46  1  0.496509  0.751860  0.195475  1
  O  O47  1  0.496509  0.748140  0.695475  1
