# generated using pymatgen
data_Li5Fe3(NiO5)2
_symmetry_space_group_name_H-M   'P 1'
_cell_length_a   5.09475192
_cell_length_b   5.16873762
_cell_length_c   7.73716556
_cell_angle_alpha   71.05795782
_cell_angle_beta   71.88144117
_cell_angle_gamma   81.49652725
_symmetry_Int_Tables_number   1
_chemical_formula_structural   Li5Fe3(NiO5)2
_chemical_formula_sum   'Li5 Fe3 Ni2 O10'
_cell_volume   182.90746469
_cell_formula_units_Z   1
loop_
 _symmetry_equiv_pos_site_id
 _symmetry_equiv_pos_as_xyz
  1  'x, y, z'
loop_
 _atom_site_type_symbol
 _atom_site_label
 _atom_site_symmetry_multiplicity
 _atom_site_fract_x
 _atom_site_fract_y
 _atom_site_fract_z
 _atom_site_occupancy
  Li  Li0  1  0.485604  0.778964  0.413059  1
  Li  Li1  1  0.513072  0.614426  0.774978  1
  Li  Li2  1  0.000000  0.500000  0.500000  1
  Li  Li3  1  0.486928  0.385574  0.225022  1
  Li  Li4  1  0.514396  0.221036  0.586941  1
  Fe  Fe5  1  0.500000  0.000000  0.000000  1
  Fe  Fe6  1  0.006630  0.313185  0.882571  1
  Fe  Fe7  1  0.993370  0.686815  0.117429  1
  Ni  Ni8  1  0.008537  0.900659  0.692289  1
  Ni  Ni9  1  0.991463  0.099341  0.307711  1
  O  O10  1  0.238301  0.951299  0.857132  1
  O  O11  1  0.774276  0.674419  0.933766  1
  O  O12  1  0.779268  0.874009  0.541148  1
  O  O13  1  0.260589  0.757030  0.231253  1
  O  O14  1  0.241301  0.543895  0.661091  1
  O  O15  1  0.758699  0.456105  0.338909  1
  O  O16  1  0.739411  0.242970  0.768747  1
  O  O17  1  0.220732  0.125991  0.458852  1
  O  O18  1  0.225724  0.325581  0.066234  1
  O  O19  1  0.761699  0.048701  0.142868  1
