# generated using pymatgen
data_Mn2Si(H2O3)2
_symmetry_space_group_name_H-M   'P 1'
_cell_length_a   5.41219569
_cell_length_b   7.30311144
_cell_length_c   12.88743638
_cell_angle_alpha   90.00000000
_cell_angle_beta   90.00000000
_cell_angle_gamma   90.00000000
_symmetry_Int_Tables_number   1
_chemical_formula_structural   Mn2Si(H2O3)2
_chemical_formula_sum   'Mn8 Si4 H16 O24'
_cell_volume   509.38711256
_cell_formula_units_Z   4
loop_
 _symmetry_equiv_pos_site_id
 _symmetry_equiv_pos_as_xyz
  1  'x, y, z'
loop_
 _atom_site_type_symbol
 _atom_site_label
 _atom_site_symmetry_multiplicity
 _atom_site_fract_x
 _atom_site_fract_y
 _atom_site_fract_z
 _atom_site_occupancy
  Mn  Mn0  1  0.000213  0.323752  0.687899  1
  Mn  Mn1  1  0.500213  0.676248  0.312101  1
  Mn  Mn2  1  0.500213  0.323752  0.812101  1
  Mn  Mn3  1  0.000213  0.676248  0.187899  1
  Mn  Mn4  1  0.021279  0.669524  0.458934  1
  Mn  Mn5  1  0.521279  0.330476  0.541066  1
  Mn  Mn6  1  0.521279  0.669524  0.041066  1
  Mn  Mn7  1  0.021279  0.330476  0.958934  1
  Si  Si8  1  0.814645  0.284877  0.314140  1
  Si  Si9  1  0.314645  0.715123  0.685860  1
  Si  Si10  1  0.314645  0.284877  0.185860  1
  Si  Si11  1  0.814645  0.715123  0.814140  1
  H  H12  1  0.250718  0.389730  0.381485  1
  H  H13  1  0.750718  0.610270  0.618515  1
  H  H14  1  0.750718  0.389730  0.118515  1
  H  H15  1  0.250718  0.610270  0.881485  1
  H  H16  1  0.648094  0.951534  0.183212  1
  H  H17  1  0.148094  0.048466  0.816788  1
  H  H18  1  0.148094  0.951534  0.316788  1
  H  H19  1  0.648094  0.048466  0.683212  1
  H  H20  1  0.701050  0.979817  0.434840  1
  H  H21  1  0.201050  0.020183  0.565160  1
  H  H22  1  0.201050  0.979817  0.065160  1
  H  H23  1  0.701050  0.020183  0.934840  1
  H  H24  1  0.527607  0.834445  0.499734  1
  H  H25  1  0.027607  0.165555  0.500266  1
  H  H26  1  0.027607  0.834445  0.000266  1
  H  H27  1  0.527607  0.165555  0.999734  1
  O  O28  1  0.826516  0.507906  0.317835  1
  O  O29  1  0.326516  0.492094  0.682165  1
  O  O30  1  0.326516  0.507906  0.182165  1
  O  O31  1  0.826516  0.492094  0.817835  1
  O  O32  1  0.325885  0.483464  0.425422  1
  O  O33  1  0.825885  0.516536  0.574578  1
  O  O34  1  0.825885  0.483464  0.074578  1
  O  O35  1  0.325885  0.516536  0.925422  1
  O  O36  1  0.652810  0.818011  0.177357  1
  O  O37  1  0.152810  0.181989  0.822643  1
  O  O38  1  0.152810  0.818011  0.322643  1
  O  O39  1  0.652810  0.181989  0.677357  1
  O  O40  1  0.665384  0.843085  0.446716  1
  O  O41  1  0.165384  0.156915  0.553284  1
  O  O42  1  0.165384  0.843085  0.053284  1
  O  O43  1  0.665384  0.156915  0.946716  1
  O  O44  1  0.772309  0.188103  0.426383  1
  O  O45  1  0.272309  0.811897  0.573617  1
  O  O46  1  0.272309  0.188103  0.073617  1
  O  O47  1  0.772309  0.811897  0.926383  1
  O  O48  1  0.091689  0.214810  0.268141  1
  O  O49  1  0.591689  0.785190  0.731859  1
  O  O50  1  0.591689  0.214810  0.231859  1
  O  O51  1  0.091689  0.785190  0.768141  1
