# generated using pymatgen
data_Li2Fe2P2O9
_symmetry_space_group_name_H-M   'P 1'
_cell_length_a   5.69516657
_cell_length_b   8.28923833
_cell_length_c   14.71886160
_cell_angle_alpha   90.00000000
_cell_angle_beta   90.00000000
_cell_angle_gamma   90.00000000
_symmetry_Int_Tables_number   1
_chemical_formula_structural   Li2Fe2P2O9
_chemical_formula_sum   'Li8 Fe8 P8 O36'
_cell_volume   694.85674736
_cell_formula_units_Z   4
loop_
 _symmetry_equiv_pos_site_id
 _symmetry_equiv_pos_as_xyz
  1  'x, y, z'
loop_
 _atom_site_type_symbol
 _atom_site_label
 _atom_site_symmetry_multiplicity
 _atom_site_fract_x
 _atom_site_fract_y
 _atom_site_fract_z
 _atom_site_occupancy
  Li  Li0  1  0.250000  0.981786  0.232146  1
  Li  Li1  1  0.250000  0.932070  0.619923  1
  Li  Li2  1  0.750000  0.567930  0.119923  1
  Li  Li3  1  0.750000  0.518214  0.732146  1
  Li  Li4  1  0.250000  0.481786  0.267854  1
  Li  Li5  1  0.250000  0.432070  0.880077  1
  Li  Li6  1  0.750000  0.067930  0.380077  1
  Li  Li7  1  0.750000  0.018214  0.767854  1
  Fe  Fe8  1  0.500000  0.000000  0.000000  1
  Fe  Fe9  1  0.000000  0.000000  0.000000  1
  Fe  Fe10  1  0.250000  0.796150  0.424355  1
  Fe  Fe11  1  0.750000  0.703850  0.924355  1
  Fe  Fe12  1  0.500000  0.500000  0.500000  1
  Fe  Fe13  1  0.000000  0.500000  0.500000  1
  Fe  Fe14  1  0.250000  0.296150  0.075645  1
  Fe  Fe15  1  0.750000  0.203850  0.575645  1
  P  P16  1  0.750000  0.828452  0.573500  1
  P  P17  1  0.250000  0.794031  0.831234  1
  P  P18  1  0.750000  0.705969  0.331234  1
  P  P19  1  0.250000  0.671548  0.073500  1
  P  P20  1  0.750000  0.328452  0.926500  1
  P  P21  1  0.250000  0.294031  0.668766  1
  P  P22  1  0.750000  0.205969  0.168766  1
  P  P23  1  0.250000  0.171548  0.426500  1
  O  O24  1  0.250000  0.008165  0.479558  1
  O  O25  1  0.250000  0.931502  0.908206  1
  O  O26  1  0.750000  0.939520  0.915292  1
  O  O27  1  0.250000  0.877720  0.741618  1
  O  O28  1  0.750000  0.850258  0.675550  1
  O  O29  1  0.970192  0.817641  0.346857  1
  O  O30  1  0.529808  0.817641  0.346857  1
  O  O31  1  0.481941  0.762622  0.042568  1
  O  O32  1  0.018059  0.762622  0.042568  1
  O  O33  1  0.981941  0.737378  0.542568  1
  O  O34  1  0.518059  0.737378  0.542568  1
  O  O35  1  0.470192  0.682359  0.846857  1
  O  O36  1  0.029808  0.682359  0.846857  1
  O  O37  1  0.250000  0.649742  0.175550  1
  O  O38  1  0.750000  0.622280  0.241618  1
  O  O39  1  0.250000  0.560480  0.415292  1
  O  O40  1  0.750000  0.568498  0.408206  1
  O  O41  1  0.750000  0.491835  0.979558  1
  O  O42  1  0.250000  0.508165  0.020442  1
  O  O43  1  0.250000  0.431502  0.591794  1
  O  O44  1  0.750000  0.439520  0.584708  1
  O  O45  1  0.250000  0.377720  0.758382  1
  O  O46  1  0.750000  0.350258  0.824450  1
  O  O47  1  0.970192  0.317641  0.153143  1
  O  O48  1  0.529808  0.317641  0.153143  1
  O  O49  1  0.481941  0.262622  0.457432  1
  O  O50  1  0.018059  0.262622  0.457432  1
  O  O51  1  0.981941  0.237378  0.957432  1
  O  O52  1  0.518059  0.237378  0.957432  1
  O  O53  1  0.470192  0.182359  0.653143  1
  O  O54  1  0.029808  0.182359  0.653143  1
  O  O55  1  0.250000  0.149742  0.324450  1
  O  O56  1  0.750000  0.122280  0.258382  1
  O  O57  1  0.250000  0.060480  0.084708  1
  O  O58  1  0.750000  0.068498  0.091794  1
  O  O59  1  0.750000  0.991835  0.520442  1
