# generated using pymatgen
data_Al2CO
_symmetry_space_group_name_H-M   'P 1'
_cell_length_a   5.11948205
_cell_length_b   5.64062499
_cell_length_c   6.31614635
_cell_angle_alpha   90.00000000
_cell_angle_beta   90.00000000
_cell_angle_gamma   90.00000000
_symmetry_Int_Tables_number   1
_chemical_formula_structural   Al2CO
_chemical_formula_sum   'Al8 C4 O4'
_cell_volume   182.39185325
_cell_formula_units_Z   4
loop_
 _symmetry_equiv_pos_site_id
 _symmetry_equiv_pos_as_xyz
  1  'x, y, z'
loop_
 _atom_site_type_symbol
 _atom_site_label
 _atom_site_symmetry_multiplicity
 _atom_site_fract_x
 _atom_site_fract_y
 _atom_site_fract_z
 _atom_site_occupancy
  Al  Al0  1  0.104290  0.419446  0.882426  1
  Al  Al1  1  0.598291  0.077953  0.865936  1
  Al  Al2  1  0.104290  0.919446  0.617574  1
  Al  Al3  1  0.598291  0.577953  0.634064  1
  Al  Al4  1  0.098291  0.422047  0.365936  1
  Al  Al5  1  0.604290  0.080554  0.382426  1
  Al  Al6  1  0.098291  0.922047  0.134064  1
  Al  Al7  1  0.604290  0.580554  0.117574  1
  C  C8  1  0.482752  0.399626  0.876430  1
  C  C9  1  0.482752  0.899626  0.623570  1
  C  C10  1  0.982752  0.100374  0.376430  1
  C  C11  1  0.982752  0.600374  0.123570  1
  O  O12  1  0.980665  0.079397  0.876084  1
  O  O13  1  0.980665  0.579397  0.623916  1
  O  O14  1  0.480665  0.420603  0.376084  1
  O  O15  1  0.480665  0.920603  0.123916  1
