# generated using pymatgen
data_Tm2TeO6
_symmetry_space_group_name_H-M   'P 1'
_cell_length_a   9.10506415
_cell_length_b   9.10506415
_cell_length_c   5.11277007
_cell_angle_alpha   90.00000000
_cell_angle_beta   90.00000000
_cell_angle_gamma   120.00000000
_symmetry_Int_Tables_number   1
_chemical_formula_structural   Tm2TeO6
_chemical_formula_sum   'Tm6 Te3 O18'
_cell_volume   367.07339935
_cell_formula_units_Z   3
loop_
 _symmetry_equiv_pos_site_id
 _symmetry_equiv_pos_as_xyz
  1  'x, y, z'
loop_
 _atom_site_type_symbol
 _atom_site_label
 _atom_site_symmetry_multiplicity
 _atom_site_fract_x
 _atom_site_fract_y
 _atom_site_fract_z
 _atom_site_occupancy
  Tm  Tm0  1  0.000000  0.624244  0.500000  1
  Tm  Tm1  1  0.000000  0.287273  0.000000  1
  Tm  Tm2  1  0.375756  0.375756  0.500000  1
  Tm  Tm3  1  0.287273  0.000000  0.000000  1
  Tm  Tm4  1  0.712727  0.712727  0.000000  1
  Tm  Tm5  1  0.624244  0.000000  0.500000  1
  Te  Te6  1  0.333333  0.666667  0.005519  1
  Te  Te7  1  0.000000  0.000000  0.500000  1
  Te  Te8  1  0.666667  0.333333  0.994481  1
  O  O9  1  0.083066  0.880180  0.287364  1
  O  O10  1  0.222054  0.759788  0.789163  1
  O  O11  1  0.131119  0.542437  0.222198  1
  O  O12  1  0.411319  0.868881  0.222198  1
  O  O13  1  0.240212  0.462266  0.789163  1
  O  O14  1  0.119820  0.202886  0.287364  1
  O  O15  1  0.202886  0.119820  0.712636  1
  O  O16  1  0.537734  0.777946  0.789163  1
  O  O17  1  0.457563  0.588681  0.222198  1
  O  O18  1  0.797114  0.916934  0.287364  1
  O  O19  1  0.462266  0.240212  0.210837  1
  O  O20  1  0.588681  0.457563  0.777802  1
  O  O21  1  0.542437  0.131119  0.777802  1
  O  O22  1  0.777946  0.537734  0.210837  1
  O  O23  1  0.916934  0.797114  0.712636  1
  O  O24  1  0.759788  0.222054  0.210837  1
  O  O25  1  0.868881  0.411319  0.777802  1
  O  O26  1  0.880180  0.083066  0.712636  1
