# generated using pymatgen
data_Mn4O7F
_symmetry_space_group_name_H-M   'P 1'
_cell_length_a   6.67405419
_cell_length_b   6.67405419
_cell_length_c   6.98165400
_cell_angle_alpha   65.61783019
_cell_angle_beta   114.38216981
_cell_angle_gamma   83.94272768
_symmetry_Int_Tables_number   1
_chemical_formula_structural   Mn4O7F
_chemical_formula_sum   'Mn8 O14 F2'
_cell_volume   243.29511354
_cell_formula_units_Z   2
loop_
 _symmetry_equiv_pos_site_id
 _symmetry_equiv_pos_as_xyz
  1  'x, y, z'
loop_
 _atom_site_type_symbol
 _atom_site_label
 _atom_site_symmetry_multiplicity
 _atom_site_fract_x
 _atom_site_fract_y
 _atom_site_fract_z
 _atom_site_occupancy
  Mn  Mn0  1  0.713819  0.291056  0.162867  1
  Mn  Mn1  1  0.802178  0.691022  0.856847  1
  Mn  Mn2  1  0.308978  0.197822  0.356847  1
  Mn  Mn3  1  0.192638  0.815766  0.638454  1
  Mn  Mn4  1  0.812872  0.698967  0.354118  1
  Mn  Mn5  1  0.708944  0.286181  0.662867  1
  Mn  Mn6  1  0.184234  0.807362  0.138454  1
  Mn  Mn7  1  0.301033  0.187128  0.854118  1
  O  O8  1  0.103887  0.725507  0.391084  1
  O  O9  1  0.597968  0.238425  0.384907  1
  O  O10  1  0.727373  0.600103  0.113177  1
  O  O11  1  0.131176  0.539846  0.107881  1
  O  O12  1  0.761575  0.402032  0.884907  1
  O  O13  1  0.048611  0.132259  0.390988  1
  O  O14  1  0.460154  0.868824  0.607881  1
  O  O15  1  0.961834  0.368334  0.613187  1
  O  O16  1  0.867741  0.951389  0.890988  1
  O  O17  1  0.223131  0.101488  0.107457  1
  O  O18  1  0.631666  0.038166  0.113187  1
  O  O19  1  0.274493  0.896113  0.891084  1
  O  O20  1  0.399897  0.272627  0.613177  1
  O  O21  1  0.898512  0.776869  0.607457  1
  F  F22  1  0.354843  0.467559  0.879032  1
  F  F23  1  0.532441  0.645157  0.379032  1
