# generated using pymatgen
data_NbH14C4NO14
_symmetry_space_group_name_H-M   'P 1'
_cell_length_a   6.64356411
_cell_length_b   16.48530382
_cell_length_c   13.82191743
_cell_angle_alpha   90.00000000
_cell_angle_beta   115.98795482
_cell_angle_gamma   90.00000000
_symmetry_Int_Tables_number   1
_chemical_formula_structural   NbH14C4NO14
_chemical_formula_sum   'Nb4 H56 C16 N4 O56'
_cell_volume   1360.72726015
_cell_formula_units_Z   4
loop_
 _symmetry_equiv_pos_site_id
 _symmetry_equiv_pos_as_xyz
  1  'x, y, z'
loop_
 _atom_site_type_symbol
 _atom_site_label
 _atom_site_symmetry_multiplicity
 _atom_site_fract_x
 _atom_site_fract_y
 _atom_site_fract_z
 _atom_site_occupancy
  Nb  Nb0  1  0.990338  0.889945  0.201172  1
  Nb  Nb1  1  0.009662  0.389945  0.298828  1
  Nb  Nb2  1  0.990338  0.610055  0.701172  1
  Nb  Nb3  1  0.009662  0.110055  0.798828  1
  H  H4  1  0.635431  0.156506  0.026060  1
  H  H5  1  0.363632  0.914401  0.050102  1
  H  H6  1  0.295834  0.486807  0.072794  1
  H  H7  1  0.797333  0.608705  0.076089  1
  H  H8  1  0.193092  0.408863  0.101959  1
  H  H9  1  0.445545  0.682927  0.135654  1
  H  H10  1  0.826642  0.046946  0.128602  1
  H  H11  1  0.948394  0.679736  0.143523  1
  H  H12  1  0.313874  0.993436  0.175428  1
  H  H13  1  0.587456  0.767122  0.202010  1
  H  H14  1  0.362875  0.735111  0.218035  1
  H  H15  1  0.398345  0.179468  0.229786  1
  H  H16  1  0.536264  0.434591  0.225159  1
  H  H17  1  0.019405  0.554421  0.238738  1
  H  H18  1  0.463736  0.934591  0.274841  1
  H  H19  1  0.601655  0.679468  0.270214  1
  H  H20  1  0.980595  0.054421  0.261262  1
  H  H21  1  0.637125  0.235111  0.281965  1
  H  H22  1  0.412544  0.267122  0.297990  1
  H  H23  1  0.686126  0.493436  0.324572  1
  H  H24  1  0.554455  0.182927  0.364346  1
  H  H25  1  0.051606  0.179736  0.356477  1
  H  H26  1  0.173358  0.546946  0.371398  1
  H  H27  1  0.806908  0.908863  0.398041  1
  H  H28  1  0.704166  0.986807  0.427206  1
  H  H29  1  0.202667  0.108705  0.423911  1
  H  H30  1  0.636368  0.414401  0.449898  1
  H  H31  1  0.364569  0.656506  0.473940  1
  H  H32  1  0.635431  0.343494  0.526060  1
  H  H33  1  0.363632  0.585599  0.550102  1
  H  H34  1  0.797333  0.891295  0.576089  1
  H  H35  1  0.295834  0.013193  0.572794  1
  H  H36  1  0.193092  0.091137  0.601959  1
  H  H37  1  0.826642  0.453054  0.628602  1
  H  H38  1  0.948394  0.820264  0.643523  1
  H  H39  1  0.445545  0.817073  0.635654  1
  H  H40  1  0.313874  0.506564  0.675428  1
  H  H41  1  0.587456  0.732878  0.702010  1
  H  H42  1  0.362875  0.764889  0.718035  1
  H  H43  1  0.019405  0.945579  0.738738  1
  H  H44  1  0.398345  0.320532  0.729786  1
  H  H45  1  0.536264  0.065409  0.725159  1
  H  H46  1  0.980595  0.445579  0.761262  1
  H  H47  1  0.463736  0.565409  0.774841  1
  H  H48  1  0.601655  0.820532  0.770214  1
  H  H49  1  0.637125  0.264889  0.781965  1
  H  H50  1  0.412544  0.232878  0.797990  1
  H  H51  1  0.686126  0.006564  0.824572  1
  H  H52  1  0.051606  0.320264  0.856477  1
  H  H53  1  0.173358  0.953054  0.871398  1
  H  H54  1  0.554455  0.317073  0.864346  1
  H  H55  1  0.806908  0.591137  0.898041  1
  H  H56  1  0.202667  0.391295  0.923911  1
  H  H57  1  0.704166  0.513193  0.927206  1
  H  H58  1  0.636368  0.085599  0.949898  1
  H  H59  1  0.364569  0.843494  0.973940  1
  C  C60  1  0.079759  0.201500  0.001741  1
  C  C61  1  0.178441  0.116126  0.038903  1
  C  C62  1  0.741772  0.390481  0.056162  1
  C  C63  1  0.680312  0.309737  0.092599  1
  C  C64  1  0.319688  0.809737  0.407401  1
  C  C65  1  0.258228  0.890481  0.443838  1
  C  C66  1  0.821559  0.616126  0.461097  1
  C  C67  1  0.920241  0.701500  0.498259  1
  C  C68  1  0.079759  0.298500  0.501741  1
  C  C69  1  0.178441  0.383874  0.538903  1
  C  C70  1  0.741772  0.109519  0.556162  1
  C  C71  1  0.680312  0.190263  0.592599  1
  C  C72  1  0.319688  0.690263  0.907401  1
  C  C73  1  0.258228  0.609519  0.943838  1
  C  C74  1  0.821559  0.883874  0.961097  1
  C  C75  1  0.920241  0.798500  0.998259  1
  N  N76  1  0.498286  0.716137  0.206217  1
  N  N77  1  0.501714  0.216137  0.293783  1
  N  N78  1  0.498286  0.783863  0.706217  1
  N  N79  1  0.501714  0.283863  0.793783  1
  O  O80  1  0.706272  0.104250  0.024450  1
  O  O81  1  0.552884  0.260155  0.027193  1
  O  O82  1  0.333816  0.590535  0.040488  1
  O  O83  1  0.855109  0.932869  0.039814  1
  O  O84  1  0.093908  0.256134  0.065051  1
  O  O85  1  0.324973  0.429125  0.095519  1
  O  O86  1  0.017568  0.792429  0.103978  1
  O  O87  1  0.281067  0.097434  0.135625  1
  O  O88  1  0.879736  0.434304  0.135292  1
  O  O89  1  0.894615  0.625510  0.149925  1
  O  O90  1  0.324721  0.937539  0.204547  1
  O  O91  1  0.777942  0.300863  0.196916  1
  O  O92  1  0.741446  0.851598  0.199350  1
  O  O93  1  0.904098  0.015870  0.198762  1
  O  O94  1  0.675279  0.437539  0.295453  1
  O  O95  1  0.095902  0.515870  0.301238  1
  O  O96  1  0.258554  0.351598  0.300650  1
  O  O97  1  0.222058  0.800863  0.303084  1
  O  O98  1  0.105385  0.125510  0.350075  1
  O  O99  1  0.718933  0.597434  0.364375  1
  O  O100  1  0.120264  0.934304  0.364708  1
  O  O101  1  0.982432  0.292429  0.396022  1
  O  O102  1  0.675027  0.929125  0.404481  1
  O  O103  1  0.906092  0.756134  0.434949  1
  O  O104  1  0.666184  0.090535  0.459512  1
  O  O105  1  0.144891  0.432869  0.460186  1
  O  O106  1  0.447116  0.760155  0.472807  1
  O  O107  1  0.293728  0.604250  0.475550  1
  O  O108  1  0.706272  0.395750  0.524450  1
  O  O109  1  0.552884  0.239845  0.527193  1
  O  O110  1  0.855109  0.567131  0.539814  1
  O  O111  1  0.333816  0.909465  0.540488  1
  O  O112  1  0.093908  0.243866  0.565051  1
  O  O113  1  0.324973  0.070875  0.595519  1
  O  O114  1  0.017568  0.707571  0.603978  1
  O  O115  1  0.879736  0.065696  0.635292  1
  O  O116  1  0.281067  0.402566  0.635625  1
  O  O117  1  0.894615  0.874490  0.649925  1
  O  O118  1  0.777942  0.199137  0.696916  1
  O  O119  1  0.741446  0.648402  0.699350  1
  O  O120  1  0.904098  0.484130  0.698762  1
  O  O121  1  0.324721  0.562461  0.704547  1
  O  O122  1  0.095902  0.984130  0.801238  1
  O  O123  1  0.258554  0.148402  0.800650  1
  O  O124  1  0.222058  0.699137  0.803084  1
  O  O125  1  0.675279  0.062461  0.795453  1
  O  O126  1  0.105385  0.374490  0.850075  1
  O  O127  1  0.120264  0.565696  0.864708  1
  O  O128  1  0.718933  0.902566  0.864375  1
  O  O129  1  0.982432  0.207571  0.896022  1
  O  O130  1  0.675027  0.570875  0.904481  1
  O  O131  1  0.906092  0.743866  0.934949  1
  O  O132  1  0.144891  0.067131  0.960186  1
  O  O133  1  0.666184  0.409465  0.959512  1
  O  O134  1  0.447116  0.739845  0.972807  1
  O  O135  1  0.293728  0.895750  0.975550  1
