# generated using pymatgen
data_Na2MnSiCO7
_symmetry_space_group_name_H-M   'P 1'
_cell_length_a   5.22486172
_cell_length_b   6.44906922
_cell_length_c   9.03996072
_cell_angle_alpha   90.00000000
_cell_angle_beta   92.07674266
_cell_angle_gamma   90.00000000
_symmetry_Int_Tables_number   1
_chemical_formula_structural   Na2MnSiCO7
_chemical_formula_sum   'Na4 Mn2 Si2 C2 O14'
_cell_volume   304.40588096
_cell_formula_units_Z   2
loop_
 _symmetry_equiv_pos_site_id
 _symmetry_equiv_pos_as_xyz
  1  'x, y, z'
loop_
 _atom_site_type_symbol
 _atom_site_label
 _atom_site_symmetry_multiplicity
 _atom_site_fract_x
 _atom_site_fract_y
 _atom_site_fract_z
 _atom_site_occupancy
  Na  Na0  1  0.758162  0.986265  0.241619  1
  Na  Na1  1  0.758162  0.513735  0.241619  1
  Na  Na2  1  0.241838  0.486265  0.758381  1
  Na  Na3  1  0.241838  0.013735  0.758381  1
  Mn  Mn4  1  0.208796  0.250000  0.349212  1
  Mn  Mn5  1  0.791204  0.750000  0.650788  1
  Si  Si6  1  0.284430  0.750000  0.429562  1
  Si  Si7  1  0.715570  0.250000  0.570438  1
  C  C8  1  0.275394  0.250000  0.080643  1
  C  C9  1  0.724606  0.750000  0.919357  1
  O  O10  1  0.689537  0.750000  0.054950  1
  O  O11  1  0.050038  0.250000  0.140278  1
  O  O12  1  0.463200  0.250000  0.183140  1
  O  O13  1  0.207369  0.953093  0.328165  1
  O  O14  1  0.207369  0.546907  0.328165  1
  O  O15  1  0.865550  0.250000  0.413980  1
  O  O16  1  0.598813  0.750000  0.466692  1
  O  O17  1  0.401187  0.250000  0.533308  1
  O  O18  1  0.134450  0.750000  0.586020  1
  O  O19  1  0.792631  0.453093  0.671835  1
  O  O20  1  0.792631  0.046907  0.671835  1
  O  O21  1  0.536800  0.750000  0.816860  1
  O  O22  1  0.949962  0.750000  0.859722  1
  O  O23  1  0.310463  0.250000  0.945050  1
