# generated using pymatgen
data_Ti3TeO8
_symmetry_space_group_name_H-M   'P 1'
_cell_length_a   5.49924992
_cell_length_b   5.50075163
_cell_length_c   7.34273249
_cell_angle_alpha   85.62590169
_cell_angle_beta   85.97377575
_cell_angle_gamma   77.88372417
_symmetry_Int_Tables_number   1
_chemical_formula_structural   Ti3TeO8
_chemical_formula_sum   'Ti3 Te1 O8'
_cell_volume   216.20222609
_cell_formula_units_Z   1
loop_
 _symmetry_equiv_pos_site_id
 _symmetry_equiv_pos_as_xyz
  1  'x, y, z'
loop_
 _atom_site_type_symbol
 _atom_site_label
 _atom_site_symmetry_multiplicity
 _atom_site_fract_x
 _atom_site_fract_y
 _atom_site_fract_z
 _atom_site_occupancy
  Ti  Ti0  1  0.886791  0.992701  0.887586  1
  Ti  Ti1  1  0.606482  0.505862  0.368077  1
  Ti  Ti2  1  0.406840  0.017056  0.618432  1
  Te  Te3  1  0.168831  0.405630  0.116586  1
  O  O4  1  0.004666  0.652819  0.942216  1
  O  O5  1  0.949154  0.512801  0.320829  1
  O  O6  1  0.561706  0.071700  0.818731  1
  O  O7  1  0.495950  0.212277  0.418904  1
  O  O8  1  0.512652  0.693358  0.565959  1
  O  O9  1  0.414632  0.634122  0.183806  1
  O  O10  1  0.074311  0.077738  0.687549  1
  O  O11  1  0.917985  0.175536  0.071326  1
