# generated using pymatgen
data_VBO4
_symmetry_space_group_name_H-M   'P 1'
_cell_length_a   5.03980861
_cell_length_b   5.03980861
_cell_length_c   5.03980861
_cell_angle_alpha   122.06097353
_cell_angle_beta   122.06097353
_cell_angle_gamma   86.46588170
_symmetry_Int_Tables_number   1
_chemical_formula_structural   VBO4
_chemical_formula_sum   'V1 B1 O4'
_cell_volume   87.51540566
_cell_formula_units_Z   1
loop_
 _symmetry_equiv_pos_site_id
 _symmetry_equiv_pos_as_xyz
  1  'x, y, z'
loop_
 _atom_site_type_symbol
 _atom_site_label
 _atom_site_symmetry_multiplicity
 _atom_site_fract_x
 _atom_site_fract_y
 _atom_site_fract_z
 _atom_site_occupancy
  V  V0  1  0.000000  0.000000  0.000000  1
  B  B1  1  0.250000  0.750000  0.500000  1
  O  O2  1  0.138812  0.763918  0.173368  1
  O  O3  1  0.034556  0.861188  0.625106  1
  O  O4  1  0.590550  0.965444  0.826632  1
  O  O5  1  0.236082  0.409450  0.374894  1
