# generated using pymatgen
data_Li5Mn6(BO3)6
_symmetry_space_group_name_H-M   'P 1'
_cell_length_a   5.26404260
_cell_length_b   6.18873727
_cell_length_c   12.92829344
_cell_angle_alpha   94.24888124
_cell_angle_beta   91.10280176
_cell_angle_gamma   114.89384733
_symmetry_Int_Tables_number   1
_chemical_formula_structural   Li5Mn6(BO3)6
_chemical_formula_sum   'Li5 Mn6 B6 O18'
_cell_volume   380.40077421
_cell_formula_units_Z   1
loop_
 _symmetry_equiv_pos_site_id
 _symmetry_equiv_pos_as_xyz
  1  'x, y, z'
loop_
 _atom_site_type_symbol
 _atom_site_label
 _atom_site_symmetry_multiplicity
 _atom_site_fract_x
 _atom_site_fract_y
 _atom_site_fract_z
 _atom_site_occupancy
  Li  Li0  1  0.811457  0.935929  0.253027  1
  Li  Li1  1  0.864246  0.413858  0.070083  1
  Li  Li2  1  0.523497  0.734027  0.411563  1
  Li  Li3  1  0.480889  0.271060  0.591071  1
  Li  Li4  1  0.193569  0.063348  0.748069  1
  Mn  Mn5  1  0.266979  0.891258  0.127596  1
  Mn  Mn6  1  0.393912  0.441028  0.199827  1
  Mn  Mn7  1  0.061649  0.774003  0.533153  1
  Mn  Mn8  1  0.943499  0.229623  0.463782  1
  Mn  Mn9  1  0.600285  0.561064  0.811111  1
  Mn  Mn10  1  0.747300  0.117766  0.866148  1
  B  B11  1  0.720132  0.788234  0.024730  1
  B  B12  1  0.958833  0.571925  0.307145  1
  B  B13  1  0.621517  0.902083  0.643970  1
  B  B14  1  0.376260  0.095552  0.356979  1
  B  B15  1  0.026831  0.406999  0.690824  1
  B  B16  1  0.292274  0.230901  0.976918  1
  O  O17  1  0.938232  0.726209  0.018651  1
  O  O18  1  0.602399  0.804224  0.118505  1
  O  O19  1  0.443758  0.243249  0.068221  1
  O  O20  1  0.057339  0.535101  0.211758  1
  O  O21  1  0.721349  0.613617  0.313933  1
  O  O22  1  0.109470  0.575763  0.398940  1
  O  O23  1  0.725013  0.867577  0.549215  1
  O  O24  1  0.225703  0.090253  0.265873  1
  O  O25  1  0.384656  0.943561  0.649114  1
  O  O26  1  0.614586  0.054589  0.352244  1
  O  O27  1  0.771585  0.905801  0.736333  1
  O  O28  1  0.277840  0.133038  0.453289  1
  O  O29  1  0.897623  0.425788  0.598570  1
  O  O30  1  0.276588  0.386448  0.691494  1
  O  O31  1  0.881435  0.398902  0.781371  1
  O  O32  1  0.594792  0.815172  0.930679  1
  O  O33  1  0.404454  0.207680  0.882179  1
  O  O34  1  0.043385  0.253788  0.981562  1
