# generated using pymatgen
data_NaNiPO4
_symmetry_space_group_name_H-M   'P 1'
_cell_length_a   4.98790114
_cell_length_b   6.16704839
_cell_length_c   10.22963894
_cell_angle_alpha   90.00000000
_cell_angle_beta   90.00000000
_cell_angle_gamma   90.00000000
_symmetry_Int_Tables_number   1
_chemical_formula_structural   NaNiPO4
_chemical_formula_sum   'Na4 Ni4 P4 O16'
_cell_volume   314.67011489
_cell_formula_units_Z   4
loop_
 _symmetry_equiv_pos_site_id
 _symmetry_equiv_pos_as_xyz
  1  'x, y, z'
loop_
 _atom_site_type_symbol
 _atom_site_label
 _atom_site_symmetry_multiplicity
 _atom_site_fract_x
 _atom_site_fract_y
 _atom_site_fract_z
 _atom_site_occupancy
  Na  Na0  1  0.000000  0.000000  0.000000  1
  Na  Na1  1  0.000000  0.500000  0.000000  1
  Na  Na2  1  0.500000  0.000000  0.500000  1
  Na  Na3  1  0.500000  0.500000  0.500000  1
  Ni  Ni4  1  0.514107  0.250000  0.220198  1
  Ni  Ni5  1  0.014107  0.750000  0.279802  1
  Ni  Ni6  1  0.985893  0.250000  0.720198  1
  Ni  Ni7  1  0.485893  0.750000  0.779802  1
  P  P8  1  0.565578  0.750000  0.106076  1
  P  P9  1  0.065578  0.250000  0.393924  1
  P  P10  1  0.934422  0.750000  0.606076  1
  P  P11  1  0.434422  0.250000  0.893924  1
  O  O12  1  0.340027  0.250000  0.039008  1
  O  O13  1  0.258236  0.750000  0.114504  1
  O  O14  1  0.702523  0.948349  0.176593  1
  O  O15  1  0.702523  0.551651  0.176593  1
  O  O16  1  0.202523  0.448349  0.323407  1
  O  O17  1  0.202523  0.051651  0.323407  1
  O  O18  1  0.758236  0.250000  0.385496  1
  O  O19  1  0.840027  0.750000  0.460992  1
  O  O20  1  0.159973  0.250000  0.539008  1
  O  O21  1  0.241764  0.750000  0.614504  1
  O  O22  1  0.797477  0.948349  0.676593  1
  O  O23  1  0.797477  0.551651  0.676593  1
  O  O24  1  0.297477  0.448349  0.823407  1
  O  O25  1  0.297477  0.051651  0.823407  1
  O  O26  1  0.741764  0.250000  0.885496  1
  O  O27  1  0.659973  0.750000  0.960992  1
