# generated using pymatgen
data_Na7(WO3)12
_symmetry_space_group_name_H-M   'P 1'
_cell_length_a   9.58073181
_cell_length_b   9.58073181
_cell_length_c   9.58004525
_cell_angle_alpha   80.40971711
_cell_angle_beta   99.59028289
_cell_angle_gamma   59.99683385
_symmetry_Int_Tables_number   1
_chemical_formula_structural   Na7(WO3)12
_chemical_formula_sum   'Na7 W12 O36'
_cell_volume   717.99936092
_cell_formula_units_Z   1
loop_
 _symmetry_equiv_pos_site_id
 _symmetry_equiv_pos_as_xyz
  1  'x, y, z'
loop_
 _atom_site_type_symbol
 _atom_site_label
 _atom_site_symmetry_multiplicity
 _atom_site_fract_x
 _atom_site_fract_y
 _atom_site_fract_z
 _atom_site_occupancy
  Na  Na0  1  0.417292  0.916505  0.250505  1
  Na  Na1  1  0.749622  0.250378  0.250202  1
  Na  Na2  1  0.250378  0.749622  0.749798  1
  Na  Na3  1  0.083495  0.582708  0.250505  1
  Na  Na4  1  0.582708  0.083495  0.749495  1
  Na  Na5  1  0.000000  0.000000  0.000000  1
  Na  Na6  1  0.916505  0.417292  0.749495  1
  W  W7  1  0.706807  0.958051  0.126246  1
  W  W8  1  0.126313  0.873687  0.377584  1
  W  W9  1  0.041949  0.293193  0.126246  1
  W  W10  1  0.458073  0.208095  0.375651  1
  W  W11  1  0.541927  0.791905  0.624349  1
  W  W12  1  0.958051  0.706807  0.873754  1
  W  W13  1  0.873687  0.126313  0.622416  1
  W  W14  1  0.377558  0.622442  0.126413  1
  W  W15  1  0.293193  0.041949  0.873754  1
  W  W16  1  0.791905  0.541927  0.375651  1
  W  W17  1  0.622442  0.377558  0.873587  1
  W  W18  1  0.208095  0.458073  0.624349  1
  O  O19  1  0.247981  0.752019  0.247922  1
  O  O20  1  0.749727  0.750278  0.249918  1
  O  O21  1  0.082645  0.082555  0.248049  1
  O  O22  1  0.917445  0.917355  0.248049  1
  O  O23  1  0.333256  0.833249  0.500135  1
  O  O24  1  0.000000  0.000000  0.500000  1
  O  O25  1  0.583187  0.083197  0.250042  1
  O  O26  1  0.750278  0.749727  0.750082  1
  O  O27  1  0.833249  0.333256  0.499865  1
  O  O28  1  0.082555  0.082645  0.751951  1
  O  O29  1  0.249722  0.250273  0.249918  1
  O  O30  1  0.416921  0.416535  0.250027  1
  O  O31  1  0.500000  0.000000  0.500000  1
  O  O32  1  0.666744  0.166751  0.499865  1
  O  O33  1  0.917355  0.917445  0.751951  1
  O  O34  1  0.330636  0.834605  0.000016  1
  O  O35  1  0.583465  0.583079  0.250027  1
  O  O36  1  0.916803  0.416813  0.250042  1
  O  O37  1  0.416813  0.916803  0.749958  1
  O  O38  1  0.834715  0.834715  0.000000  1
  O  O39  1  0.752019  0.247981  0.752078  1
  O  O40  1  0.333305  0.333305  0.500000  1
  O  O41  1  0.500000  0.000000  0.000000  1
  O  O42  1  0.416535  0.416921  0.749973  1
  O  O43  1  0.834605  0.330636  0.999984  1
  O  O44  1  0.000000  0.500000  0.500000  1
  O  O45  1  0.166751  0.666744  0.500135  1
  O  O46  1  0.250273  0.249722  0.750082  1
  O  O47  1  0.669364  0.165395  0.999984  1
  O  O48  1  0.583079  0.583465  0.749973  1
  O  O49  1  0.500000  0.500000  0.000000  1
  O  O50  1  0.165285  0.165285  0.000000  1
  O  O51  1  0.666695  0.666695  0.500000  1
  O  O52  1  0.083197  0.583187  0.749958  1
  O  O53  1  0.000000  0.500000  0.000000  1
  O  O54  1  0.165395  0.669364  0.000016  1
