# generated using pymatgen
data_Li4Ti15O32
_symmetry_space_group_name_H-M   'P 1'
_cell_length_a   19.68046293
_cell_length_b   19.68046293
_cell_length_c   19.68046293
_cell_angle_alpha   17.47135172
_cell_angle_beta   17.47135172
_cell_angle_gamma   17.47135172
_symmetry_Int_Tables_number   1
_chemical_formula_structural   Li4Ti15O32
_chemical_formula_sum   'Li4 Ti15 O32'
_cell_volume   599.64364620
_cell_formula_units_Z   1
loop_
 _symmetry_equiv_pos_site_id
 _symmetry_equiv_pos_as_xyz
  1  'x, y, z'
loop_
 _atom_site_type_symbol
 _atom_site_label
 _atom_site_symmetry_multiplicity
 _atom_site_fract_x
 _atom_site_fract_y
 _atom_site_fract_z
 _atom_site_occupancy
  Li  Li0  1  0.655717  0.655717  0.655717  1
  Li  Li1  1  0.594295  0.594295  0.594295  1
  Li  Li2  1  0.405705  0.405705  0.405705  1
  Li  Li3  1  0.344283  0.344283  0.344283  1
  Ti  Ti4  1  0.748798  0.748798  0.748798  1
  Ti  Ti5  1  0.120651  0.638982  0.120651  1
  Ti  Ti6  1  0.373320  0.373320  0.878540  1
  Ti  Ti7  1  0.626680  0.626680  0.121460  1
  Ti  Ti8  1  0.121460  0.626680  0.626680  1
  Ti  Ti9  1  0.500000  0.500000  0.500000  1
  Ti  Ti10  1  0.878540  0.373320  0.373320  1
  Ti  Ti11  1  0.251202  0.251202  0.251202  1
  Ti  Ti12  1  0.638982  0.120651  0.120651  1
  Ti  Ti13  1  0.626680  0.121460  0.626680  1
  Ti  Ti14  1  0.373320  0.878540  0.373320  1
  Ti  Ti15  1  0.120651  0.120651  0.638982  1
  Ti  Ti16  1  0.879349  0.361018  0.879349  1
  Ti  Ti17  1  0.361018  0.879349  0.879349  1
  Ti  Ti18  1  0.879349  0.879349  0.361018  1
  O  O19  1  0.814650  0.814650  0.296579  1
  O  O20  1  0.667351  0.667351  0.232329  1
  O  O21  1  0.690200  0.690200  0.690200  1
  O  O22  1  0.808920  0.808920  0.808920  1
  O  O23  1  0.296579  0.814650  0.814650  1
  O  O24  1  0.232329  0.667351  0.667351  1
  O  O25  1  0.559825  0.559825  0.559825  1
  O  O26  1  0.667351  0.232329  0.667351  1
  O  O27  1  0.581712  0.581712  0.022224  1
  O  O28  1  0.185350  0.703421  0.185350  1
  O  O29  1  0.814650  0.296579  0.814650  1
  O  O30  1  0.332649  0.767671  0.332649  1
  O  O31  1  0.081233  0.520220  0.081233  1
  O  O32  1  0.418288  0.418288  0.977776  1
  O  O33  1  0.309800  0.309800  0.309800  1
  O  O34  1  0.440175  0.440175  0.440175  1
  O  O35  1  0.191080  0.191080  0.191080  1
  O  O36  1  0.022224  0.581712  0.581712  1
  O  O37  1  0.767671  0.332649  0.332649  1
  O  O38  1  0.703421  0.185350  0.185350  1
  O  O39  1  0.520220  0.081233  0.081233  1
  O  O40  1  0.977776  0.418288  0.418288  1
  O  O41  1  0.418288  0.977776  0.418288  1
  O  O42  1  0.081233  0.081233  0.520220  1
  O  O43  1  0.332649  0.332649  0.767671  1
  O  O44  1  0.918767  0.479780  0.918767  1
  O  O45  1  0.185350  0.185350  0.703421  1
  O  O46  1  0.581712  0.022224  0.581712  1
  O  O47  1  0.479780  0.918767  0.918767  1
  O  O48  1  0.941795  0.941795  0.941795  1
  O  O49  1  0.058205  0.058205  0.058205  1
  O  O50  1  0.918767  0.918767  0.479780  1
