# generated using pymatgen
data_LiCoPO4
_symmetry_space_group_name_H-M   'P 1'
_cell_length_a   5.75710267
_cell_length_b   7.64942958
_cell_length_c   13.90751235
_cell_angle_alpha   90.00000000
_cell_angle_beta   90.00000000
_cell_angle_gamma   90.00000000
_symmetry_Int_Tables_number   1
_chemical_formula_structural   LiCoPO4
_chemical_formula_sum   'Li8 Co8 P8 O32'
_cell_volume   612.46669829
_cell_formula_units_Z   8
loop_
 _symmetry_equiv_pos_site_id
 _symmetry_equiv_pos_as_xyz
  1  'x, y, z'
loop_
 _atom_site_type_symbol
 _atom_site_label
 _atom_site_symmetry_multiplicity
 _atom_site_fract_x
 _atom_site_fract_y
 _atom_site_fract_z
 _atom_site_occupancy
  Li  Li0  1  0.650673  0.196309  0.221669  1
  Li  Li1  1  0.150673  0.196309  0.278331  1
  Li  Li2  1  0.650673  0.303691  0.721669  1
  Li  Li3  1  0.150673  0.303691  0.778331  1
  Li  Li4  1  0.849327  0.696309  0.221669  1
  Li  Li5  1  0.349327  0.696309  0.278331  1
  Li  Li6  1  0.849327  0.803691  0.721669  1
  Li  Li7  1  0.349327  0.803691  0.778331  1
  Co  Co8  1  0.904963  0.183436  0.539912  1
  Co  Co9  1  0.404963  0.183436  0.960088  1
  Co  Co10  1  0.904963  0.316564  0.039912  1
  Co  Co11  1  0.404963  0.316564  0.460088  1
  Co  Co12  1  0.595037  0.683436  0.539912  1
  Co  Co13  1  0.095037  0.683436  0.960088  1
  Co  Co14  1  0.595037  0.816564  0.039912  1
  Co  Co15  1  0.095037  0.816564  0.460088  1
  P  P16  1  0.397887  0.046556  0.627398  1
  P  P17  1  0.897887  0.046556  0.872602  1
  P  P18  1  0.397887  0.453444  0.127398  1
  P  P19  1  0.897887  0.453444  0.372602  1
  P  P20  1  0.102113  0.546556  0.627398  1
  P  P21  1  0.602113  0.546556  0.872602  1
  P  P22  1  0.102113  0.953444  0.127398  1
  P  P23  1  0.602113  0.953444  0.372602  1
  O  O24  1  0.319796  0.978881  0.060966  1
  O  O25  1  0.819796  0.978881  0.439034  1
  O  O26  1  0.836240  0.113423  0.772968  1
  O  O27  1  0.336240  0.113423  0.727032  1
  O  O28  1  0.970545  0.129296  0.137628  1
  O  O29  1  0.470545  0.129296  0.362372  1
  O  O30  1  0.558984  0.188150  0.577361  1
  O  O31  1  0.058984  0.188150  0.922639  1
  O  O32  1  0.558984  0.311850  0.077361  1
  O  O33  1  0.058984  0.311850  0.422639  1
  O  O34  1  0.970545  0.370704  0.637628  1
  O  O35  1  0.470545  0.370704  0.862372  1
  O  O36  1  0.336240  0.386577  0.227032  1
  O  O37  1  0.836240  0.386577  0.272968  1
  O  O38  1  0.319796  0.521119  0.560966  1
  O  O39  1  0.819796  0.521119  0.939034  1
  O  O40  1  0.680204  0.478881  0.439034  1
  O  O41  1  0.180204  0.478881  0.060966  1
  O  O42  1  0.163760  0.613423  0.727032  1
  O  O43  1  0.663760  0.613423  0.772968  1
  O  O44  1  0.529455  0.629296  0.137628  1
  O  O45  1  0.029455  0.629296  0.362372  1
  O  O46  1  0.941016  0.688150  0.577361  1
  O  O47  1  0.441016  0.688150  0.922639  1
  O  O48  1  0.941016  0.811850  0.077361  1
  O  O49  1  0.441016  0.811850  0.422639  1
  O  O50  1  0.529455  0.870704  0.637628  1
  O  O51  1  0.029455  0.870704  0.862372  1
  O  O52  1  0.163760  0.886577  0.227032  1
  O  O53  1  0.663760  0.886577  0.272968  1
  O  O54  1  0.180204  0.021119  0.560966  1
  O  O55  1  0.680204  0.021119  0.939034  1
