# generated using pymatgen
data_Ni3OF5
_symmetry_space_group_name_H-M   'P 1'
_cell_length_a   5.62311170
_cell_length_b   4.69481448
_cell_length_c   7.75943472
_cell_angle_alpha   90.00000000
_cell_angle_beta   93.84613916
_cell_angle_gamma   90.00000000
_symmetry_Int_Tables_number   1
_chemical_formula_structural   Ni3OF5
_chemical_formula_sum   'Ni6 O2 F10'
_cell_volume   204.38357822
_cell_formula_units_Z   2
loop_
 _symmetry_equiv_pos_site_id
 _symmetry_equiv_pos_as_xyz
  1  'x, y, z'
loop_
 _atom_site_type_symbol
 _atom_site_label
 _atom_site_symmetry_multiplicity
 _atom_site_fract_x
 _atom_site_fract_y
 _atom_site_fract_z
 _atom_site_occupancy
  Ni  Ni0  1  0.748129  0.509497  0.007626  1
  Ni  Ni1  1  0.412251  0.486778  0.667917  1
  Ni  Ni2  1  0.076763  0.508613  0.330294  1
  Ni  Ni3  1  0.923237  0.008613  0.669706  1
  Ni  Ni4  1  0.587749  0.986778  0.332083  1
  Ni  Ni5  1  0.251871  0.009497  0.992374  1
  O  O6  1  0.213611  0.195024  0.766210  1
  O  O7  1  0.786389  0.695024  0.233790  1
  F  F8  1  0.879830  0.196854  0.434827  1
  F  F9  1  0.549680  0.195311  0.102222  1
  F  F10  1  0.715129  0.305892  0.773657  1
  F  F11  1  0.045496  0.299915  0.101597  1
  F  F12  1  0.381605  0.302115  0.429113  1
  F  F13  1  0.120170  0.696854  0.565173  1
  F  F14  1  0.450320  0.695311  0.897778  1
  F  F15  1  0.284871  0.805892  0.226343  1
  F  F16  1  0.618395  0.802115  0.570887  1
  F  F17  1  0.954504  0.799915  0.898403  1
