# generated using pymatgen
data_Li11V6O5F19
_symmetry_space_group_name_H-M   'P 1'
_cell_length_a   5.19940158
_cell_length_b   5.47607448
_cell_length_c   16.16153361
_cell_angle_alpha   80.56686943
_cell_angle_beta   89.38009981
_cell_angle_gamma   89.32845368
_symmetry_Int_Tables_number   1
_chemical_formula_structural   Li11V6O5F19
_chemical_formula_sum   'Li11 V6 O5 F19'
_cell_volume   453.88411623
_cell_formula_units_Z   1
loop_
 _symmetry_equiv_pos_site_id
 _symmetry_equiv_pos_as_xyz
  1  'x, y, z'
loop_
 _atom_site_type_symbol
 _atom_site_label
 _atom_site_symmetry_multiplicity
 _atom_site_fract_x
 _atom_site_fract_y
 _atom_site_fract_z
 _atom_site_occupancy
  Li  Li0  1  0.543740  0.511397  0.210658  1
  Li  Li1  1  0.011476  0.187712  0.769656  1
  Li  Li2  1  0.498258  0.358826  0.437039  1
  Li  Li3  1  0.020805  0.484243  0.093905  1
  Li  Li4  1  0.510450  0.989305  0.888943  1
  Li  Li5  1  0.521503  0.879182  0.532306  1
  Li  Li6  1  0.967586  0.011050  0.211368  1
  Li  Li7  1  0.999885  0.845655  0.437997  1
  Li  Li8  1  0.482777  0.659671  0.767500  1
  Li  Li9  1  0.498244  0.032798  0.107052  1
  Li  Li10  1  0.992071  0.532533  0.900315  1
  V  V11  1  0.979775  0.339848  0.338921  1
  V  V12  1  0.519319  0.189444  0.668566  1
  V  V13  1  0.004607  0.005772  0.996381  1
  V  V14  1  0.506054  0.506390  0.996436  1
  V  V15  1  0.527596  0.845702  0.337475  1
  V  V16  1  0.986790  0.657770  0.666628  1
  O  O17  1  0.802222  0.614608  0.367457  1
  O  O18  1  0.813672  0.298546  0.020592  1
  O  O19  1  0.697481  0.113212  0.372444  1
  O  O20  1  0.195778  0.710906  0.975489  1
  O  O21  1  0.697788  0.452138  0.704282  1
  F  F22  1  0.684921  0.796628  0.039784  1
  F  F23  1  0.313536  0.551032  0.299878  1
  F  F24  1  0.870385  0.086805  0.880117  1
  F  F25  1  0.594171  0.212513  0.550783  1
  F  F26  1  0.882717  0.378882  0.208882  1
  F  F27  1  0.383894  0.385415  0.116663  1
  F  F28  1  0.366155  0.054738  0.781052  1
  F  F29  1  0.156504  0.211485  0.444052  1
  F  F30  1  0.821924  0.956732  0.708451  1
  F  F31  1  0.328386  0.853091  0.646074  1
  F  F32  1  0.193012  0.043654  0.298574  1
  F  F33  1  0.631158  0.637064  0.879652  1
  F  F34  1  0.138435  0.933632  0.114954  1
  F  F35  1  0.869132  0.766651  0.552487  1
  F  F36  1  0.635441  0.880590  0.210372  1
  F  F37  1  0.131152  0.549944  0.785727  1
  F  F38  1  0.360849  0.724829  0.451765  1
  F  F39  1  0.326471  0.212546  0.955389  1
  F  F40  1  0.181543  0.363097  0.641337  1
