# generated using pymatgen
data_Be2P2O7
_symmetry_space_group_name_H-M   'P 1'
_cell_length_a   4.61241609
_cell_length_b   13.22929272
_cell_length_c   15.95900289
_cell_angle_alpha   90.00000000
_cell_angle_beta   90.00000000
_cell_angle_gamma   90.00000000
_symmetry_Int_Tables_number   1
_chemical_formula_structural   Be2P2O7
_chemical_formula_sum   'Be16 P16 O56'
_cell_volume   973.80243886
_cell_formula_units_Z   8
loop_
 _symmetry_equiv_pos_site_id
 _symmetry_equiv_pos_as_xyz
  1  'x, y, z'
loop_
 _atom_site_type_symbol
 _atom_site_label
 _atom_site_symmetry_multiplicity
 _atom_site_fract_x
 _atom_site_fract_y
 _atom_site_fract_z
 _atom_site_occupancy
  Be  Be0  1  0.154557  0.466479  0.072739  1
  Be  Be1  1  0.154557  0.033521  0.572739  1
  Be  Be2  1  0.154557  0.466479  0.427261  1
  Be  Be3  1  0.154557  0.033521  0.927261  1
  Be  Be4  1  0.245144  0.196287  0.176309  1
  Be  Be5  1  0.245144  0.196287  0.323691  1
  Be  Be6  1  0.245144  0.303713  0.676309  1
  Be  Be7  1  0.245144  0.303713  0.823691  1
  Be  Be8  1  0.754856  0.696287  0.176309  1
  Be  Be9  1  0.754856  0.696287  0.323691  1
  Be  Be10  1  0.754856  0.803713  0.676309  1
  Be  Be11  1  0.754856  0.803713  0.823691  1
  Be  Be12  1  0.845443  0.966479  0.072739  1
  Be  Be13  1  0.845443  0.966479  0.427261  1
  Be  Be14  1  0.845443  0.533521  0.572739  1
  Be  Be15  1  0.845443  0.533521  0.927261  1
  P  P16  1  0.032010  0.999943  0.250000  1
  P  P17  1  0.032010  0.500057  0.750000  1
  P  P18  1  0.220700  0.792583  0.250000  1
  P  P19  1  0.220700  0.707417  0.750000  1
  P  P20  1  0.443651  0.644044  0.016979  1
  P  P21  1  0.443651  0.644044  0.483021  1
  P  P22  1  0.443651  0.855956  0.516979  1
  P  P23  1  0.443651  0.855956  0.983021  1
  P  P24  1  0.556349  0.144044  0.016979  1
  P  P25  1  0.556349  0.144044  0.483021  1
  P  P26  1  0.556349  0.355956  0.516979  1
  P  P27  1  0.556349  0.355956  0.983021  1
  P  P28  1  0.779300  0.292583  0.250000  1
  P  P29  1  0.779300  0.207417  0.750000  1
  P  P30  1  0.967990  0.499943  0.250000  1
  P  P31  1  0.967990  0.000057  0.750000  1
  O  O32  1  0.054945  0.761972  0.171088  1
  O  O33  1  0.054945  0.761972  0.328912  1
  O  O34  1  0.054945  0.738028  0.671088  1
  O  O35  1  0.054945  0.738028  0.828912  1
  O  O36  1  0.131846  0.487200  0.168975  1
  O  O37  1  0.131846  0.487200  0.331025  1
  O  O38  1  0.131846  0.012800  0.668975  1
  O  O39  1  0.131846  0.012800  0.831025  1
  O  O40  1  0.195570  0.935015  0.986661  1
  O  O41  1  0.195570  0.564985  0.486661  1
  O  O42  1  0.195570  0.935015  0.513339  1
  O  O43  1  0.195570  0.564985  0.013339  1
  O  O44  1  0.183270  0.104335  0.250000  1
  O  O45  1  0.183270  0.395665  0.750000  1
  O  O46  1  0.279242  0.586667  0.750000  1
  O  O47  1  0.279242  0.913333  0.250000  1
  O  O48  1  0.285193  0.750000  0.000000  1
  O  O49  1  0.285193  0.750000  0.500000  1
  O  O50  1  0.406370  0.147303  0.101021  1
  O  O51  1  0.406370  0.147303  0.398979  1
  O  O52  1  0.406370  0.352697  0.601021  1
  O  O53  1  0.406370  0.352697  0.898979  1
  O  O54  1  0.345248  0.128122  0.555246  1
  O  O55  1  0.345248  0.371878  0.055246  1
  O  O56  1  0.345248  0.128122  0.944754  1
  O  O57  1  0.345248  0.371878  0.444754  1
  O  O58  1  0.538878  0.753970  0.250000  1
  O  O59  1  0.538878  0.746030  0.750000  1
  O  O60  1  0.461122  0.246030  0.750000  1
  O  O61  1  0.461122  0.253970  0.250000  1
  O  O62  1  0.654752  0.628122  0.555246  1
  O  O63  1  0.654752  0.871878  0.055246  1
  O  O64  1  0.654752  0.628122  0.944754  1
  O  O65  1  0.654752  0.871878  0.444754  1
  O  O66  1  0.593630  0.647303  0.101021  1
  O  O67  1  0.593630  0.647303  0.398979  1
  O  O68  1  0.593630  0.852697  0.601021  1
  O  O69  1  0.593630  0.852697  0.898979  1
  O  O70  1  0.714807  0.250000  0.000000  1
  O  O71  1  0.714807  0.250000  0.500000  1
  O  O72  1  0.720758  0.086667  0.750000  1
  O  O73  1  0.720758  0.413333  0.250000  1
  O  O74  1  0.816730  0.604335  0.250000  1
  O  O75  1  0.816730  0.895665  0.750000  1
  O  O76  1  0.804430  0.435015  0.986661  1
  O  O77  1  0.804430  0.064985  0.486661  1
  O  O78  1  0.804430  0.064985  0.013339  1
  O  O79  1  0.804430  0.435015  0.513339  1
  O  O80  1  0.868154  0.987200  0.168975  1
  O  O81  1  0.868154  0.987200  0.331025  1
  O  O82  1  0.868154  0.512800  0.668975  1
  O  O83  1  0.868154  0.512800  0.831025  1
  O  O84  1  0.945055  0.261972  0.171088  1
  O  O85  1  0.945055  0.261972  0.328912  1
  O  O86  1  0.945055  0.238028  0.671088  1
  O  O87  1  0.945055  0.238028  0.828912  1
