# generated using pymatgen
data_Li5CrP2(O4F)2
_symmetry_space_group_name_H-M   'P 1'
_cell_length_a   10.05718989
_cell_length_b   10.05718989
_cell_length_c   6.50512965
_cell_angle_alpha   90.00000000
_cell_angle_beta   90.00000000
_cell_angle_gamma   120.00000000
_symmetry_Int_Tables_number   1
_chemical_formula_structural   Li5CrP2(O4F)2
_chemical_formula_sum   'Li15 Cr3 P6 O24 F6'
_cell_volume   569.82288641
_cell_formula_units_Z   3
loop_
 _symmetry_equiv_pos_site_id
 _symmetry_equiv_pos_as_xyz
  1  'x, y, z'
loop_
 _atom_site_type_symbol
 _atom_site_label
 _atom_site_symmetry_multiplicity
 _atom_site_fract_x
 _atom_site_fract_y
 _atom_site_fract_z
 _atom_site_occupancy
  Li  Li0  1  0.834229  0.167682  0.503499  1
  Li  Li1  1  0.000000  0.000000  0.546971  1
  Li  Li2  1  0.000000  0.000000  0.966282  1
  Li  Li3  1  0.666667  0.333333  0.463038  1
  Li  Li4  1  0.666667  0.333333  0.044528  1
  Li  Li5  1  0.832318  0.666547  0.503499  1
  Li  Li6  1  0.333453  0.165771  0.503499  1
  Li  Li7  1  0.134287  0.816181  0.741428  1
  Li  Li8  1  0.990271  0.473264  0.267812  1
  Li  Li9  1  0.482993  0.009729  0.267812  1
  Li  Li10  1  0.333333  0.666667  0.967047  1
  Li  Li11  1  0.333333  0.666667  0.486588  1
  Li  Li12  1  0.183819  0.318106  0.741428  1
  Li  Li13  1  0.681894  0.865713  0.741428  1
  Li  Li14  1  0.526736  0.517007  0.267812  1
  Cr  Cr15  1  0.834386  0.167248  0.005068  1
  Cr  Cr16  1  0.832752  0.667138  0.005068  1
  Cr  Cr17  1  0.332862  0.165614  0.005068  1
  P  P18  1  0.703425  0.857759  0.265355  1
  P  P19  1  0.154334  0.296575  0.265355  1
  P  P20  1  0.964135  0.477711  0.745368  1
  P  P21  1  0.142241  0.845666  0.265355  1
  P  P22  1  0.513575  0.035865  0.745368  1
  P  P23  1  0.522289  0.486425  0.745368  1
  O  O24  1  0.682523  0.067431  0.769680  1
  O  O25  1  0.787665  0.959908  0.073678  1
  O  O26  1  0.785149  0.945906  0.462504  1
  O  O27  1  0.987175  0.268607  0.239502  1
  O  O28  1  0.731393  0.718567  0.239502  1
  O  O29  1  0.160757  0.214851  0.462504  1
  O  O30  1  0.172243  0.212335  0.073678  1
  O  O31  1  0.932569  0.615092  0.769680  1
  O  O32  1  0.040092  0.827757  0.073678  1
  O  O33  1  0.054094  0.839243  0.462504  1
  O  O34  1  0.885216  0.389905  0.547153  1
  O  O35  1  0.880213  0.374571  0.935944  1
  O  O36  1  0.281433  0.012825  0.239502  1
  O  O37  1  0.384908  0.317477  0.769680  1
  O  O38  1  0.196209  0.727179  0.265384  1
  O  O39  1  0.137507  0.535003  0.748560  1
  O  O40  1  0.494358  0.119787  0.935944  1
  O  O41  1  0.504689  0.114784  0.547153  1
  O  O42  1  0.397496  0.862493  0.748560  1
  O  O43  1  0.272821  0.469030  0.265384  1
  O  O44  1  0.530970  0.803791  0.265384  1
  O  O45  1  0.464997  0.602504  0.748560  1
  O  O46  1  0.610095  0.495311  0.547153  1
  O  O47  1  0.625429  0.505642  0.935944  1
  F  F48  1  0.698745  0.175634  0.220929  1
  F  F49  1  0.969453  0.158113  0.788889  1
  F  F50  1  0.841887  0.811340  0.788889  1
  F  F51  1  0.824366  0.523111  0.220929  1
  F  F52  1  0.188660  0.030547  0.788889  1
  F  F53  1  0.476889  0.301255  0.220929  1
