# generated using pymatgen
data_Li4FeCo5O12
_symmetry_space_group_name_H-M   'P 1'
_cell_length_a   4.92404603
_cell_length_b   4.92404603
_cell_length_c   9.96202866
_cell_angle_alpha   89.97256671
_cell_angle_beta   90.02743329
_cell_angle_gamma   60.32887333
_symmetry_Int_Tables_number   1
_chemical_formula_structural   Li4FeCo5O12
_chemical_formula_sum   'Li4 Fe1 Co5 O12'
_cell_volume   209.87085861
_cell_formula_units_Z   1
loop_
 _symmetry_equiv_pos_site_id
 _symmetry_equiv_pos_as_xyz
  1  'x, y, z'
loop_
 _atom_site_type_symbol
 _atom_site_label
 _atom_site_symmetry_multiplicity
 _atom_site_fract_x
 _atom_site_fract_y
 _atom_site_fract_z
 _atom_site_occupancy
  Li  Li0  1  0.846054  0.659425  0.248295  1
  Li  Li1  1  0.659425  0.846054  0.751705  1
  Li  Li2  1  0.340575  0.153946  0.248295  1
  Li  Li3  1  0.153946  0.340575  0.751705  1
  Fe  Fe4  1  0.000000  0.000000  0.500000  1
  Co  Co5  1  0.831563  0.831563  0.000000  1
  Co  Co6  1  0.330994  0.330994  0.500000  1
  Co  Co7  1  0.669006  0.669006  0.500000  1
  Co  Co8  1  0.168437  0.168437  0.000000  1
  Co  Co9  1  0.500000  0.500000  0.000000  1
  O  O10  1  0.989571  0.651146  0.605666  1
  O  O11  1  0.651146  0.989571  0.394334  1
  O  O12  1  0.836442  0.493822  0.898620  1
  O  O13  1  0.506178  0.163558  0.898620  1
  O  O14  1  0.493822  0.836442  0.101380  1
  O  O15  1  0.837138  0.162862  0.095651  1
  O  O16  1  0.163558  0.506178  0.101380  1
  O  O17  1  0.348854  0.010429  0.605666  1
  O  O18  1  0.665198  0.334802  0.598405  1
  O  O19  1  0.010429  0.348854  0.394334  1
  O  O20  1  0.334802  0.665198  0.401595  1
  O  O21  1  0.162862  0.837138  0.904349  1
