# generated using pymatgen
data_CsClO3
_symmetry_space_group_name_H-M   'P 1'
_cell_length_a   4.72617346
_cell_length_b   6.57345242
_cell_length_c   6.81280573
_cell_angle_alpha   90.00000000
_cell_angle_beta   90.00000000
_cell_angle_gamma   90.00000000
_symmetry_Int_Tables_number   1
_chemical_formula_structural   CsClO3
_chemical_formula_sum   'Cs2 Cl2 O6'
_cell_volume   211.65531860
_cell_formula_units_Z   2
loop_
 _symmetry_equiv_pos_site_id
 _symmetry_equiv_pos_as_xyz
  1  'x, y, z'
loop_
 _atom_site_type_symbol
 _atom_site_label
 _atom_site_symmetry_multiplicity
 _atom_site_fract_x
 _atom_site_fract_y
 _atom_site_fract_z
 _atom_site_occupancy
  Cs  Cs0  1  0.002696  0.000000  0.488539  1
  Cs  Cs1  1  0.997304  0.500000  0.988539  1
  Cl  Cl2  1  0.469271  0.000000  0.029976  1
  Cl  Cl3  1  0.530729  0.500000  0.529976  1
  O  O4  1  0.520356  0.815716  0.157367  1
  O  O5  1  0.520356  0.184284  0.157367  1
  O  O6  1  0.843288  0.500000  0.479754  1
  O  O7  1  0.479644  0.684284  0.657367  1
  O  O8  1  0.479644  0.315716  0.657367  1
  O  O9  1  0.156712  0.000000  0.979754  1
