# generated using pymatgen
data_V3(PO4)2
_symmetry_space_group_name_H-M   'P 1'
_cell_length_a   8.31538482
_cell_length_b   9.74217229
_cell_length_c   8.69434876
_cell_angle_alpha   90.00000000
_cell_angle_beta   109.95255565
_cell_angle_gamma   90.00000000
_symmetry_Int_Tables_number   1
_chemical_formula_structural   V3(PO4)2
_chemical_formula_sum   'V12 P8 O32'
_cell_volume   662.05147050
_cell_formula_units_Z   4
loop_
 _symmetry_equiv_pos_site_id
 _symmetry_equiv_pos_as_xyz
  1  'x, y, z'
loop_
 _atom_site_type_symbol
 _atom_site_label
 _atom_site_symmetry_multiplicity
 _atom_site_fract_x
 _atom_site_fract_y
 _atom_site_fract_z
 _atom_site_occupancy
  V  V0  1  0.304442  0.607247  0.084078  1
  V  V1  1  0.999741  0.627165  0.372178  1
  V  V2  1  0.408849  0.240632  0.016643  1
  V  V3  1  0.304442  0.892753  0.584078  1
  V  V4  1  0.999741  0.872835  0.872178  1
  V  V5  1  0.408849  0.259368  0.516643  1
  V  V6  1  0.591151  0.740632  0.483357  1
  V  V7  1  0.000259  0.127165  0.127822  1
  V  V8  1  0.695558  0.107247  0.415922  1
  V  V9  1  0.591151  0.759368  0.983357  1
  V  V10  1  0.000259  0.372835  0.627822  1
  V  V11  1  0.695558  0.392753  0.915922  1
  P  P12  1  0.128586  0.389502  0.174158  1
  P  P13  1  0.352318  0.935688  0.191430  1
  P  P14  1  0.128586  0.110498  0.674158  1
  P  P15  1  0.647682  0.435688  0.308570  1
  P  P16  1  0.352318  0.564312  0.691430  1
  P  P17  1  0.871414  0.889502  0.325842  1
  P  P18  1  0.647682  0.064312  0.808570  1
  P  P19  1  0.871414  0.610498  0.825842  1
  O  O20  1  0.158243  0.963870  0.101069  1
  O  O21  1  0.248182  0.391297  0.070103  1
  O  O22  1  0.141998  0.537287  0.241191  1
  O  O23  1  0.405940  0.821224  0.094470  1
  O  O24  1  0.055433  0.840496  0.425528  1
  O  O25  1  0.187717  0.274793  0.306051  1
  O  O26  1  0.455185  0.071946  0.201731  1
  O  O27  1  0.616673  0.380667  0.133092  1
  O  O28  1  0.383327  0.880667  0.366908  1
  O  O29  1  0.158243  0.536130  0.601069  1
  O  O30  1  0.544815  0.571946  0.298269  1
  O  O31  1  0.248182  0.108703  0.570103  1
  O  O32  1  0.812283  0.774793  0.193949  1
  O  O33  1  0.141998  0.962713  0.741191  1
  O  O34  1  0.944567  0.340496  0.074472  1
  O  O35  1  0.405940  0.678776  0.594470  1
  O  O36  1  0.594060  0.321224  0.405530  1
  O  O37  1  0.055433  0.659504  0.925528  1
  O  O38  1  0.858002  0.037287  0.258809  1
  O  O39  1  0.187717  0.225207  0.806051  1
  O  O40  1  0.751818  0.891297  0.429897  1
  O  O41  1  0.455185  0.428054  0.701731  1
  O  O42  1  0.841757  0.463870  0.398931  1
  O  O43  1  0.616673  0.119333  0.633092  1
  O  O44  1  0.383327  0.619333  0.866908  1
  O  O45  1  0.544815  0.928054  0.798269  1
  O  O46  1  0.812283  0.725207  0.693949  1
  O  O47  1  0.944567  0.159504  0.574472  1
  O  O48  1  0.594060  0.178776  0.905530  1
  O  O49  1  0.858002  0.462713  0.758809  1
  O  O50  1  0.751818  0.608703  0.929897  1
  O  O51  1  0.841757  0.036130  0.898931  1
