# generated using pymatgen
data_NbCo3(PO4)4
_symmetry_space_group_name_H-M   'P 1'
_cell_length_a   4.96534447
_cell_length_b   6.00103692
_cell_length_c   9.99391762
_cell_angle_alpha   90.00000000
_cell_angle_beta   90.76367125
_cell_angle_gamma   90.00000000
_symmetry_Int_Tables_number   1
_chemical_formula_structural   NbCo3(PO4)4
_chemical_formula_sum   'Nb1 Co3 P4 O16'
_cell_volume   297.76446576
_cell_formula_units_Z   1
loop_
 _symmetry_equiv_pos_site_id
 _symmetry_equiv_pos_as_xyz
  1  'x, y, z'
loop_
 _atom_site_type_symbol
 _atom_site_label
 _atom_site_symmetry_multiplicity
 _atom_site_fract_x
 _atom_site_fract_y
 _atom_site_fract_z
 _atom_site_occupancy
  Nb  Nb0  1  0.972623  0.500000  0.278745  1
  Co  Co1  1  0.029991  0.000000  0.735182  1
  Co  Co2  1  0.461853  0.000000  0.223441  1
  Co  Co3  1  0.543945  0.500000  0.768623  1
  P  P4  1  0.080004  0.500000  0.608198  1
  P  P5  1  0.391535  0.500000  0.091356  1
  P  P6  1  0.597210  0.000000  0.899014  1
  P  P7  1  0.935262  0.000000  0.410024  1
  O  O8  1  0.148501  0.500000  0.446999  1
  O  O9  1  0.225658  0.294820  0.666924  1
  O  O10  1  0.225658  0.705180  0.666924  1
  O  O11  1  0.234056  0.000000  0.383702  1
  O  O12  1  0.287690  0.000000  0.871661  1
  O  O13  1  0.244609  0.304436  0.170507  1
  O  O14  1  0.244609  0.695564  0.170507  1
  O  O15  1  0.342248  0.500000  0.945277  1
  O  O16  1  0.640343  0.000000  0.050503  1
  O  O17  1  0.742749  0.799492  0.829268  1
  O  O18  1  0.742749  0.200508  0.829268  1
  O  O19  1  0.692852  0.500000  0.134031  1
  O  O20  1  0.776669  0.500000  0.606878  1
  O  O21  1  0.794864  0.795495  0.329448  1
  O  O22  1  0.794864  0.204505  0.329448  1
  O  O23  1  0.849459  0.000000  0.554075  1
