# generated using pymatgen
data_Tm2Sb2O7
_symmetry_space_group_name_H-M   'P 1'
_cell_length_a   7.50586716
_cell_length_b   7.50586716
_cell_length_c   18.32047344
_cell_angle_alpha   90.00000000
_cell_angle_beta   90.00000000
_cell_angle_gamma   120.00000000
_symmetry_Int_Tables_number   1
_chemical_formula_structural   Tm2Sb2O7
_chemical_formula_sum   'Tm12 Sb12 O42'
_cell_volume   893.85911158
_cell_formula_units_Z   6
loop_
 _symmetry_equiv_pos_site_id
 _symmetry_equiv_pos_as_xyz
  1  'x, y, z'
loop_
 _atom_site_type_symbol
 _atom_site_label
 _atom_site_symmetry_multiplicity
 _atom_site_fract_x
 _atom_site_fract_y
 _atom_site_fract_z
 _atom_site_occupancy
  Tm  Tm0  1  0.000000  0.840438  0.666667  1
  Tm  Tm1  1  0.000000  0.832769  0.166667  1
  Tm  Tm2  1  0.177776  0.682258  0.011387  1
  Tm  Tm3  1  0.159562  0.159562  0.000000  1
  Tm  Tm4  1  0.504482  0.822224  0.678054  1
  Tm  Tm5  1  0.167231  0.167231  0.500000  1
  Tm  Tm6  1  0.317742  0.495518  0.344720  1
  Tm  Tm7  1  0.495518  0.317742  0.655280  1
  Tm  Tm8  1  0.682258  0.177776  0.988613  1
  Tm  Tm9  1  0.822224  0.504482  0.321946  1
  Tm  Tm10  1  0.832769  0.000000  0.833333  1
  Tm  Tm11  1  0.840438  0.000000  0.333333  1
  Sb  Sb12  1  0.000000  0.323554  0.166667  1
  Sb  Sb13  1  0.000000  0.310296  0.666667  1
  Sb  Sb14  1  0.169555  0.670140  0.501488  1
  Sb  Sb15  1  0.500585  0.830445  0.168155  1
  Sb  Sb16  1  0.329860  0.499415  0.834821  1
  Sb  Sb17  1  0.310296  0.000000  0.333333  1
  Sb  Sb18  1  0.676446  0.676446  0.500000  1
  Sb  Sb19  1  0.323554  0.000000  0.833333  1
  Sb  Sb20  1  0.689704  0.689704  0.000000  1
  Sb  Sb21  1  0.499415  0.329860  0.165179  1
  Sb  Sb22  1  0.670140  0.169555  0.498512  1
  Sb  Sb23  1  0.830445  0.500585  0.831845  1
  O  O24  1  0.022625  0.853103  0.284220  1
  O  O25  1  0.981195  0.802995  0.802703  1
  O  O26  1  0.103658  0.655635  0.394122  1
  O  O27  1  0.064275  0.464058  0.802266  1
  O  O28  1  0.325835  0.992734  0.956944  1
  O  O29  1  0.240211  0.691929  0.606856  1
  O  O30  1  0.007266  0.333101  0.290278  1
  O  O31  1  0.200432  0.688923  0.139220  1
  O  O32  1  0.399783  0.935725  0.468932  1
  O  O33  1  0.451718  0.759789  0.273523  1
  O  O34  1  0.488491  0.799568  0.805887  1
  O  O35  1  0.344365  0.448023  0.727455  1
  O  O36  1  0.146897  0.169522  0.617553  1
  O  O37  1  0.311077  0.511509  0.472553  1
  O  O38  1  0.197005  0.178200  0.136036  1
  O  O39  1  0.169522  0.146897  0.382447  1
  O  O40  1  0.308071  0.548282  0.940190  1
  O  O41  1  0.178200  0.197005  0.863964  1
  O  O42  1  0.551977  0.896342  0.060789  1
  O  O43  1  0.535942  0.600217  0.135599  1
  O  O44  1  0.821800  0.018805  0.469370  1
  O  O45  1  0.666899  0.674165  0.623611  1
  O  O46  1  0.448023  0.344365  0.272545  1
  O  O47  1  0.600217  0.535942  0.864401  1
  O  O48  1  0.333101  0.007266  0.709722  1
  O  O49  1  0.830478  0.977375  0.950887  1
  O  O50  1  0.548282  0.308071  0.059810  1
  O  O51  1  0.674165  0.666899  0.376389  1
  O  O52  1  0.511509  0.311077  0.527447  1
  O  O53  1  0.464058  0.064275  0.197734  1
  O  O54  1  0.691929  0.240211  0.393144  1
  O  O55  1  0.688923  0.200432  0.860780  1
  O  O56  1  0.896342  0.551977  0.939211  1
  O  O57  1  0.977375  0.830478  0.049113  1
  O  O58  1  0.799568  0.488491  0.194113  1
  O  O59  1  0.018805  0.821800  0.530630  1
  O  O60  1  0.759789  0.451718  0.726477  1
  O  O61  1  0.655635  0.103658  0.605878  1
  O  O62  1  0.935725  0.399783  0.531068  1
  O  O63  1  0.802995  0.981195  0.197297  1
  O  O64  1  0.992734  0.325835  0.043056  1
  O  O65  1  0.853103  0.022625  0.715780  1
