# generated using pymatgen
data_LiLa(MoO4)2
_symmetry_space_group_name_H-M   'P 1'
_cell_length_a   10.03237438
_cell_length_b   10.21065202
_cell_length_c   13.82228310
_cell_angle_alpha   90.00000000
_cell_angle_beta   90.00000000
_cell_angle_gamma   90.00000000
_symmetry_Int_Tables_number   1
_chemical_formula_structural   LiLa(MoO4)2
_chemical_formula_sum   'Li8 La8 Mo16 O64'
_cell_volume   1415.91437123
_cell_formula_units_Z   8
loop_
 _symmetry_equiv_pos_site_id
 _symmetry_equiv_pos_as_xyz
  1  'x, y, z'
loop_
 _atom_site_type_symbol
 _atom_site_label
 _atom_site_symmetry_multiplicity
 _atom_site_fract_x
 _atom_site_fract_y
 _atom_site_fract_z
 _atom_site_occupancy
  Li  Li0  1  0.920032  0.770012  0.476221  1
  Li  Li1  1  0.579968  0.270012  0.523779  1
  Li  Li2  1  0.420032  0.229988  0.023779  1
  Li  Li3  1  0.079968  0.729988  0.976221  1
  Li  Li4  1  0.079968  0.229988  0.523779  1
  Li  Li5  1  0.420032  0.729988  0.476221  1
  Li  Li6  1  0.579968  0.770012  0.976221  1
  Li  Li7  1  0.920032  0.270012  0.023779  1
  La  La8  1  0.879593  0.454835  0.374472  1
  La  La9  1  0.620407  0.954835  0.625528  1
  La  La10  1  0.379593  0.545165  0.125528  1
  La  La11  1  0.120407  0.045165  0.874472  1
  La  La12  1  0.120407  0.545165  0.625528  1
  La  La13  1  0.379593  0.045165  0.374472  1
  La  La14  1  0.620407  0.454835  0.874472  1
  La  La15  1  0.879593  0.954835  0.125528  1
  Mo  Mo16  1  0.633818  0.737303  0.295953  1
  Mo  Mo17  1  0.866182  0.237303  0.704047  1
  Mo  Mo18  1  0.133818  0.262697  0.204047  1
  Mo  Mo19  1  0.366182  0.762697  0.795953  1
  Mo  Mo20  1  0.366182  0.262697  0.704047  1
  Mo  Mo21  1  0.133818  0.762697  0.295953  1
  Mo  Mo22  1  0.866182  0.737303  0.795953  1
  Mo  Mo23  1  0.633818  0.237303  0.204047  1
  Mo  Mo24  1  0.287279  0.418050  0.418504  1
  Mo  Mo25  1  0.212721  0.918050  0.581496  1
  Mo  Mo26  1  0.787279  0.581950  0.081496  1
  Mo  Mo27  1  0.712721  0.081950  0.918504  1
  Mo  Mo28  1  0.712721  0.581950  0.581496  1
  Mo  Mo29  1  0.787279  0.081950  0.418504  1
  Mo  Mo30  1  0.212721  0.418050  0.918504  1
  Mo  Mo31  1  0.287279  0.918050  0.081496  1
  O  O32  1  0.704689  0.811060  0.189213  1
  O  O33  1  0.795311  0.311060  0.810787  1
  O  O34  1  0.204689  0.188940  0.310787  1
  O  O35  1  0.295311  0.688940  0.689213  1
  O  O36  1  0.295311  0.188940  0.810787  1
  O  O37  1  0.204689  0.688940  0.189213  1
  O  O38  1  0.795311  0.811060  0.689213  1
  O  O39  1  0.704689  0.311060  0.310787  1
  O  O40  1  0.515656  0.617236  0.258546  1
  O  O41  1  0.984344  0.117236  0.741454  1
  O  O42  1  0.015656  0.382764  0.241454  1
  O  O43  1  0.484344  0.882764  0.758546  1
  O  O44  1  0.484344  0.382764  0.741454  1
  O  O45  1  0.015656  0.882764  0.258546  1
  O  O46  1  0.984344  0.617236  0.758546  1
  O  O47  1  0.515656  0.117236  0.241454  1
  O  O48  1  0.755426  0.668337  0.378075  1
  O  O49  1  0.744574  0.168337  0.621925  1
  O  O50  1  0.255426  0.331663  0.121925  1
  O  O51  1  0.244574  0.831663  0.878075  1
  O  O52  1  0.244574  0.331663  0.621925  1
  O  O53  1  0.255426  0.831663  0.378075  1
  O  O54  1  0.744574  0.668337  0.878075  1
  O  O55  1  0.755426  0.168337  0.121925  1
  O  O56  1  0.540785  0.854584  0.364500  1
  O  O57  1  0.959215  0.354584  0.635500  1
  O  O58  1  0.040785  0.145416  0.135500  1
  O  O59  1  0.459215  0.645416  0.864500  1
  O  O60  1  0.459215  0.145416  0.635500  1
  O  O61  1  0.040785  0.645416  0.364500  1
  O  O62  1  0.959215  0.854584  0.864500  1
  O  O63  1  0.540785  0.354584  0.135500  1
  O  O64  1  0.335054  0.555477  0.490570  1
  O  O65  1  0.164946  0.055477  0.509430  1
  O  O66  1  0.835054  0.444523  0.009430  1
  O  O67  1  0.664946  0.944523  0.990570  1
  O  O68  1  0.664946  0.444523  0.509430  1
  O  O69  1  0.835054  0.944523  0.490570  1
  O  O70  1  0.164946  0.555477  0.990570  1
  O  O71  1  0.335054  0.055477  0.009430  1
  O  O72  1  0.296391  0.463250  0.294684  1
  O  O73  1  0.203609  0.963250  0.705316  1
  O  O74  1  0.796391  0.536750  0.205316  1
  O  O75  1  0.703609  0.036750  0.794684  1
  O  O76  1  0.703609  0.536750  0.705316  1
  O  O77  1  0.796391  0.036750  0.294684  1
  O  O78  1  0.203609  0.463250  0.794684  1
  O  O79  1  0.296391  0.963250  0.205316  1
  O  O80  1  0.111537  0.398280  0.455447  1
  O  O81  1  0.388463  0.898280  0.544553  1
  O  O82  1  0.611537  0.601720  0.044553  1
  O  O83  1  0.888463  0.101720  0.955447  1
  O  O84  1  0.888463  0.601720  0.544553  1
  O  O85  1  0.611537  0.101720  0.455447  1
  O  O86  1  0.388463  0.398280  0.955447  1
  O  O87  1  0.111537  0.898280  0.044553  1
  O  O88  1  0.398055  0.281338  0.441223  1
  O  O89  1  0.101945  0.781338  0.558777  1
  O  O90  1  0.898055  0.718662  0.058777  1
  O  O91  1  0.601945  0.218662  0.941223  1
  O  O92  1  0.601945  0.718662  0.558777  1
  O  O93  1  0.898055  0.218662  0.441223  1
  O  O94  1  0.101945  0.281338  0.941223  1
  O  O95  1  0.398055  0.781338  0.058777  1
