# generated using pymatgen
data_Tb5O9
_symmetry_space_group_name_H-M   'P 1'
_cell_length_a   6.63138650
_cell_length_b   6.63138650
_cell_length_c   6.63138650
_cell_angle_alpha   100.46569704
_cell_angle_beta   100.46569704
_cell_angle_gamma   129.54665742
_symmetry_Int_Tables_number   1
_chemical_formula_structural   Tb5O9
_chemical_formula_sum   'Tb5 O9'
_cell_volume   203.42189267
_cell_formula_units_Z   1
loop_
 _symmetry_equiv_pos_site_id
 _symmetry_equiv_pos_as_xyz
  1  'x, y, z'
loop_
 _atom_site_type_symbol
 _atom_site_label
 _atom_site_symmetry_multiplicity
 _atom_site_fract_x
 _atom_site_fract_y
 _atom_site_fract_z
 _atom_site_occupancy
  Tb  Tb0  1  0.742278  0.908389  0.601410  1
  Tb  Tb1  1  0.306979  0.140868  0.398590  1
  Tb  Tb2  1  0.859132  0.257722  0.166111  1
  Tb  Tb3  1  0.091611  0.693021  0.833889  1
  Tb  Tb4  1  0.500000  0.500000  0.000000  1
  O  O5  1  0.750000  0.250000  0.500000  1
  O  O6  1  0.844100  0.944438  0.285211  1
  O  O7  1  0.055562  0.340773  0.899662  1
  O  O8  1  0.441111  0.155900  0.100338  1
  O  O9  1  0.519007  0.835960  0.854780  1
  O  O10  1  0.981180  0.664228  0.145220  1
  O  O11  1  0.335772  0.480993  0.316952  1
  O  O12  1  0.659227  0.558889  0.714789  1
  O  O13  1  0.164040  0.018820  0.683048  1
