# generated using pymatgen
data_LiFe2(PO4)2
_symmetry_space_group_name_H-M   'P 1'
_cell_length_a   5.19353645
_cell_length_b   6.88829825
_cell_length_c   10.40377449
_cell_angle_alpha   90.00000000
_cell_angle_beta   90.94216858
_cell_angle_gamma   90.00000000
_symmetry_Int_Tables_number   1
_chemical_formula_structural   LiFe2(PO4)2
_chemical_formula_sum   'Li2 Fe4 P4 O16'
_cell_volume   372.14084324
_cell_formula_units_Z   2
loop_
 _symmetry_equiv_pos_site_id
 _symmetry_equiv_pos_as_xyz
  1  'x, y, z'
loop_
 _atom_site_type_symbol
 _atom_site_label
 _atom_site_symmetry_multiplicity
 _atom_site_fract_x
 _atom_site_fract_y
 _atom_site_fract_z
 _atom_site_occupancy
  Li  Li0  1  0.261959  0.751003  0.359826  1
  Li  Li1  1  0.261959  0.248997  0.859826  1
  Fe  Fe2  1  0.758113  0.772756  0.164206  1
  Fe  Fe3  1  0.246359  0.246723  0.326140  1
  Fe  Fe4  1  0.758113  0.227244  0.664206  1
  Fe  Fe5  1  0.246359  0.753277  0.826140  1
  P  P6  1  0.252240  0.513498  0.090487  1
  P  P7  1  0.745657  0.019638  0.403724  1
  P  P8  1  0.252240  0.486502  0.590487  1
  P  P9  1  0.745657  0.980362  0.903723  1
  O  O10  1  0.796828  0.989412  0.052063  1
  O  O11  1  0.965294  0.562249  0.120639  1
  O  O12  1  0.408036  0.681472  0.163167  1
  O  O13  1  0.322942  0.316901  0.147393  1
  O  O14  1  0.878531  0.836211  0.339089  1
  O  O15  1  0.862608  0.205044  0.350351  1
  O  O16  1  0.451624  0.003447  0.373465  1
  O  O17  1  0.304276  0.486247  0.444791  1
  O  O18  1  0.796828  0.010588  0.552063  1
  O  O19  1  0.965294  0.437751  0.620639  1
  O  O20  1  0.408036  0.318528  0.663167  1
  O  O21  1  0.322942  0.683099  0.647393  1
  O  O22  1  0.878531  0.163789  0.839089  1
  O  O23  1  0.862608  0.794956  0.850351  1
  O  O24  1  0.451624  0.996553  0.873465  1
  O  O25  1  0.304276  0.513753  0.944791  1
