# generated using pymatgen
data_LiCoPO4
_symmetry_space_group_name_H-M   'P 1'
_cell_length_a   5.06662064
_cell_length_b   8.06923637
_cell_length_c   18.79184828
_cell_angle_alpha   90.00000000
_cell_angle_beta   90.00000000
_cell_angle_gamma   90.00000000
_symmetry_Int_Tables_number   1
_chemical_formula_structural   LiCoPO4
_chemical_formula_sum   'Li8 Co8 P8 O32'
_cell_volume   768.28140642
_cell_formula_units_Z   8
loop_
 _symmetry_equiv_pos_site_id
 _symmetry_equiv_pos_as_xyz
  1  'x, y, z'
loop_
 _atom_site_type_symbol
 _atom_site_label
 _atom_site_symmetry_multiplicity
 _atom_site_fract_x
 _atom_site_fract_y
 _atom_site_fract_z
 _atom_site_occupancy
  Li  Li0  1  0.436820  0.434411  0.550109  1
  Li  Li1  1  0.436820  0.934411  0.949891  1
  Li  Li2  1  0.258600  0.861576  0.734042  1
  Li  Li3  1  0.258600  0.361576  0.765958  1
  Li  Li4  1  0.936820  0.565589  0.449891  1
  Li  Li5  1  0.936820  0.065589  0.050109  1
  Li  Li6  1  0.758600  0.138424  0.265958  1
  Li  Li7  1  0.758600  0.638424  0.234042  1
  Co  Co8  1  0.252340  0.501464  0.062780  1
  Co  Co9  1  0.252340  0.001464  0.437220  1
  Co  Co10  1  0.242434  0.328691  0.338736  1
  Co  Co11  1  0.242434  0.828691  0.161264  1
  Co  Co12  1  0.752340  0.998536  0.562780  1
  Co  Co13  1  0.752340  0.498536  0.937220  1
  Co  Co14  1  0.742434  0.171309  0.838736  1
  Co  Co15  1  0.742434  0.671309  0.661264  1
  P  P16  1  0.250390  0.200984  0.180683  1
  P  P17  1  0.250390  0.700984  0.319317  1
  P  P18  1  0.229076  0.265044  0.928501  1
  P  P19  1  0.229076  0.765044  0.571499  1
  P  P20  1  0.750390  0.799016  0.819317  1
  P  P21  1  0.750390  0.299016  0.680683  1
  P  P22  1  0.729076  0.234956  0.428501  1
  P  P23  1  0.729076  0.734956  0.071499  1
  O  O24  1  0.043727  0.327866  0.688853  1
  O  O25  1  0.043727  0.827866  0.811147  1
  O  O26  1  0.036115  0.709516  0.078627  1
  O  O27  1  0.036115  0.209516  0.421373  1
  O  O28  1  0.112380  0.920934  0.531163  1
  O  O29  1  0.112380  0.420934  0.968837  1
  O  O30  1  0.103425  0.266867  0.853091  1
  O  O31  1  0.103425  0.766867  0.646909  1
  O  O32  1  0.118782  0.050370  0.140505  1
  O  O33  1  0.118782  0.550370  0.359495  1
  O  O34  1  0.110830  0.712900  0.244573  1
  O  O35  1  0.110830  0.212900  0.255427  1
  O  O36  1  0.177459  0.360285  0.139322  1
  O  O37  1  0.177459  0.860285  0.360678  1
  O  O38  1  0.169707  0.606914  0.530869  1
  O  O39  1  0.169707  0.106914  0.969131  1
  O  O40  1  0.543727  0.172134  0.188853  1
  O  O41  1  0.543727  0.672134  0.311147  1
  O  O42  1  0.536115  0.290484  0.921373  1
  O  O43  1  0.536115  0.790484  0.578627  1
  O  O44  1  0.612380  0.079066  0.468837  1
  O  O45  1  0.612380  0.579066  0.031163  1
  O  O46  1  0.603425  0.233133  0.353091  1
  O  O47  1  0.603425  0.733133  0.146909  1
  O  O48  1  0.618782  0.949630  0.859495  1
  O  O49  1  0.618782  0.449630  0.640505  1
  O  O50  1  0.610830  0.787100  0.744573  1
  O  O51  1  0.610830  0.287100  0.755427  1
  O  O52  1  0.677459  0.639715  0.860678  1
  O  O53  1  0.677459  0.139715  0.639322  1
  O  O54  1  0.669707  0.393086  0.469131  1
  O  O55  1  0.669707  0.893086  0.030869  1
