# generated using pymatgen
data_Cr2O3
_symmetry_space_group_name_H-M   'P 1'
_cell_length_a   5.63716580
_cell_length_b   5.63716580
_cell_length_c   5.63716580
_cell_angle_alpha   54.23700653
_cell_angle_beta   54.23700653
_cell_angle_gamma   54.23700653
_symmetry_Int_Tables_number   1
_chemical_formula_structural   Cr2O3
_chemical_formula_sum   'Cr4 O6'
_cell_volume   109.63248247
_cell_formula_units_Z   2
loop_
 _symmetry_equiv_pos_site_id
 _symmetry_equiv_pos_as_xyz
  1  'x, y, z'
loop_
 _atom_site_type_symbol
 _atom_site_label
 _atom_site_symmetry_multiplicity
 _atom_site_fract_x
 _atom_site_fract_y
 _atom_site_fract_z
 _atom_site_occupancy
  Cr  Cr0  1  0.000000  0.000000  0.000000  1
  Cr  Cr1  1  0.312959  0.312959  0.312959  1
  Cr  Cr2  1  0.500000  0.500000  0.500000  1
  Cr  Cr3  1  0.687041  0.687041  0.687041  1
  O  O4  1  0.286133  0.609966  0.886183  1
  O  O5  1  0.390034  0.113817  0.713867  1
  O  O6  1  0.113817  0.713867  0.390034  1
  O  O7  1  0.886183  0.286133  0.609966  1
  O  O8  1  0.609966  0.886183  0.286133  1
  O  O9  1  0.713867  0.390034  0.113817  1
