# generated using pymatgen
data_Li2Cu2P4O13
_symmetry_space_group_name_H-M   'P 1'
_cell_length_a   4.72081040
_cell_length_b   8.46161041
_cell_length_c   11.77684381
_cell_angle_alpha   90.00000000
_cell_angle_beta   95.76527737
_cell_angle_gamma   90.00000000
_symmetry_Int_Tables_number   1
_chemical_formula_structural   Li2Cu2P4O13
_chemical_formula_sum   'Li4 Cu4 P8 O26'
_cell_volume   468.05421747
_cell_formula_units_Z   2
loop_
 _symmetry_equiv_pos_site_id
 _symmetry_equiv_pos_as_xyz
  1  'x, y, z'
loop_
 _atom_site_type_symbol
 _atom_site_label
 _atom_site_symmetry_multiplicity
 _atom_site_fract_x
 _atom_site_fract_y
 _atom_site_fract_z
 _atom_site_occupancy
  Li  Li0  1  0.011036  0.062007  0.883729  1
  Li  Li1  1  0.011036  0.437993  0.883729  1
  Li  Li2  1  0.988964  0.562007  0.116271  1
  Li  Li3  1  0.988964  0.937993  0.116271  1
  Cu  Cu4  1  0.017280  0.475796  0.627439  1
  Cu  Cu5  1  0.017280  0.024204  0.627439  1
  Cu  Cu6  1  0.982720  0.975796  0.372561  1
  Cu  Cu7  1  0.982720  0.524204  0.372561  1
  P  P8  1  0.584298  0.750000  0.511666  1
  P  P9  1  0.452581  0.250000  0.790538  1
  P  P10  1  0.708640  0.750000  0.754120  1
  P  P11  1  0.372678  0.750000  0.973846  1
  P  P12  1  0.627322  0.250000  0.026154  1
  P  P13  1  0.291360  0.250000  0.245880  1
  P  P14  1  0.547419  0.750000  0.209462  1
  P  P15  1  0.415702  0.250000  0.488334  1
  O  O16  1  0.774683  0.598201  0.505950  1
  O  O17  1  0.774683  0.901799  0.505950  1
  O  O18  1  0.684462  0.250000  0.567715  1
  O  O19  1  0.482146  0.750000  0.641011  1
  O  O20  1  0.874013  0.595658  0.753897  1
  O  O21  1  0.874013  0.904342  0.753897  1
  O  O22  1  0.312717  0.402735  0.741735  1
  O  O23  1  0.312717  0.097265  0.741735  1
  O  O24  1  0.774642  0.250000  0.805313  1
  O  O25  1  0.528452  0.750000  0.856781  1
  O  O26  1  0.359138  0.250000  0.926858  1
  O  O27  1  0.785258  0.096881  0.021841  1
  O  O28  1  0.785258  0.403119  0.021841  1
  O  O29  1  0.214742  0.903119  0.978159  1
  O  O30  1  0.214742  0.596881  0.978159  1
  O  O31  1  0.640862  0.750000  0.073142  1
  O  O32  1  0.471548  0.250000  0.143219  1
  O  O33  1  0.225358  0.750000  0.194687  1
  O  O34  1  0.687283  0.597265  0.258265  1
  O  O35  1  0.687283  0.902735  0.258265  1
  O  O36  1  0.125987  0.095658  0.246103  1
  O  O37  1  0.125987  0.404342  0.246103  1
  O  O38  1  0.517854  0.250000  0.358989  1
  O  O39  1  0.315538  0.750000  0.432285  1
  O  O40  1  0.225317  0.098201  0.494050  1
  O  O41  1  0.225317  0.401799  0.494050  1
