# generated using pymatgen
data_BaNa4O3
_symmetry_space_group_name_H-M   'P 1'
_cell_length_a   7.18188295
_cell_length_b   7.18188295
_cell_length_c   8.27773494
_cell_angle_alpha   72.75855959
_cell_angle_beta   107.24144041
_cell_angle_gamma   132.39477296
_symmetry_Int_Tables_number   1
_chemical_formula_structural   BaNa4O3
_chemical_formula_sum   'Ba2 Na8 O6'
_cell_volume   298.31366046
_cell_formula_units_Z   2
loop_
 _symmetry_equiv_pos_site_id
 _symmetry_equiv_pos_as_xyz
  1  'x, y, z'
loop_
 _atom_site_type_symbol
 _atom_site_label
 _atom_site_symmetry_multiplicity
 _atom_site_fract_x
 _atom_site_fract_y
 _atom_site_fract_z
 _atom_site_occupancy
  Ba  Ba0  1  0.734500  0.705166  0.285597  1
  Ba  Ba1  1  0.294834  0.265500  0.785597  1
  Na  Na2  1  0.043075  0.306819  0.057383  1
  Na  Na3  1  0.693181  0.956925  0.557383  1
  Na  Na4  1  0.122123  0.504921  0.396214  1
  Na  Na5  1  0.491723  0.092038  0.167216  1
  Na  Na6  1  0.495079  0.877877  0.896214  1
  Na  Na7  1  0.907962  0.508277  0.667216  1
  Na  Na8  1  0.331613  0.015000  0.507548  1
  Na  Na9  1  0.985000  0.668387  0.007548  1
  O  O10  1  0.339404  0.681989  0.164214  1
  O  O11  1  0.318011  0.660596  0.664214  1
  O  O12  1  0.709244  0.311206  0.406109  1
  O  O13  1  0.068509  0.008170  0.063349  1
  O  O14  1  0.688794  0.290756  0.906109  1
  O  O15  1  0.991830  0.931491  0.563349  1
