# generated using pymatgen
data_Li2TiFe2O5
_symmetry_space_group_name_H-M   'P 1'
_cell_length_a   5.29868597
_cell_length_b   5.30278792
_cell_length_c   7.86104997
_cell_angle_alpha   82.21659131
_cell_angle_beta   70.79951828
_cell_angle_gamma   67.62801958
_symmetry_Int_Tables_number   1
_chemical_formula_structural   Li2TiFe2O5
_chemical_formula_sum   'Li4 Ti2 Fe4 O10'
_cell_volume   192.87810053
_cell_formula_units_Z   2
loop_
 _symmetry_equiv_pos_site_id
 _symmetry_equiv_pos_as_xyz
  1  'x, y, z'
loop_
 _atom_site_type_symbol
 _atom_site_label
 _atom_site_symmetry_multiplicity
 _atom_site_fract_x
 _atom_site_fract_y
 _atom_site_fract_z
 _atom_site_occupancy
  Li  Li0  1  0.304698  0.511635  0.402207  1
  Li  Li1  1  0.695902  0.497084  0.602949  1
  Li  Li2  1  0.612889  0.008847  0.797928  1
  Li  Li3  1  0.999607  0.997067  0.995987  1
  Ti  Ti4  1  0.093777  0.491879  0.801071  1
  Ti  Ti5  1  0.789401  0.993854  0.410893  1
  Fe  Fe6  1  0.205837  0.000478  0.607190  1
  Fe  Fe7  1  0.407118  0.996655  0.189026  1
  Fe  Fe8  1  0.905844  0.497263  0.200404  1
  Fe  Fe9  1  0.495472  0.505887  0.002267  1
  O  O10  1  0.651982  0.252922  0.210314  1
  O  O11  1  0.576372  0.768759  0.401779  1
  O  O12  1  0.870764  0.279598  0.799103  1
  O  O13  1  0.039584  0.208002  0.398722  1
  O  O14  1  0.121078  0.757534  0.216130  1
  O  O15  1  0.759453  0.747195  0.985241  1
  O  O16  1  0.943891  0.753510  0.599644  1
  O  O17  1  0.252466  0.256643  0.980968  1
  O  O18  1  0.454046  0.251700  0.597217  1
  O  O19  1  0.319816  0.723489  0.800959  1
