# generated using pymatgen
data_Li5Cr6P5O24
_symmetry_space_group_name_H-M   'P 1'
_cell_length_a   6.50830179
_cell_length_b   6.78492345
_cell_length_c   10.55214004
_cell_angle_alpha   107.92619372
_cell_angle_beta   107.92743627
_cell_angle_gamma   89.74142203
_symmetry_Int_Tables_number   1
_chemical_formula_structural   Li5Cr6P5O24
_chemical_formula_sum   'Li5 Cr6 P5 O24'
_cell_volume   419.71790016
_cell_formula_units_Z   1
loop_
 _symmetry_equiv_pos_site_id
 _symmetry_equiv_pos_as_xyz
  1  'x, y, z'
loop_
 _atom_site_type_symbol
 _atom_site_label
 _atom_site_symmetry_multiplicity
 _atom_site_fract_x
 _atom_site_fract_y
 _atom_site_fract_z
 _atom_site_occupancy
  Li  Li0  1  0.235461  0.233600  0.476224  1
  Li  Li1  1  0.279078  0.770966  0.522542  1
  Li  Li2  1  0.505042  0.484910  0.983616  1
  Li  Li3  1  0.981191  0.491219  0.961917  1
  Li  Li4  1  0.510190  0.016337  0.028269  1
  Cr  Cr5  1  0.640615  0.623497  0.752309  1
  Cr  Cr6  1  0.560668  0.129602  0.757023  1
  Cr  Cr7  1  0.874724  0.364329  0.249533  1
  Cr  Cr8  1  0.128451  0.132327  0.753568  1
  Cr  Cr9  1  0.769675  0.768003  0.536422  1
  Cr  Cr10  1  0.368246  0.881642  0.244684  1
  P  P11  1  0.995006  0.003957  0.001265  1
  P  P12  1  0.233930  0.623996  0.750810  1
  P  P13  1  0.872426  0.760837  0.248404  1
  P  P14  1  0.742950  0.242695  0.494004  1
  P  P15  1  0.369511  0.485925  0.245048  1
  O  O16  1  0.900390  0.774722  0.919666  1
  O  O17  1  0.616350  0.857871  0.679703  1
  O  O18  1  0.684702  0.387094  0.817993  1
  O  O19  1  0.196532  0.380886  0.280386  1
  O  O20  1  0.322631  0.526400  0.624302  1
  O  O21  1  0.447418  0.723967  0.877185  1
  O  O22  1  0.420543  0.163098  0.885942  1
  O  O23  1  0.291135  0.089748  0.621213  1
  O  O24  1  0.080067  0.897039  0.280205  1
  O  O25  1  0.845546  0.102768  0.090434  1
  O  O26  1  0.838383  0.548808  0.126020  1
  O  O27  1  0.092560  0.796514  0.712274  1
  O  O28  1  0.128758  0.455191  0.788316  1
  O  O29  1  0.911610  0.675445  0.379519  1
  O  O30  1  0.899345  0.252146  0.410236  1
  O  O31  1  0.988950  0.142038  0.905970  1
  O  O32  1  0.840004  0.107472  0.591440  1
  O  O33  1  0.664018  0.867942  0.217812  1
  O  O34  1  0.551369  0.351237  0.219750  1
  O  O35  1  0.730648  0.471187  0.579997  1
  O  O36  1  0.506586  0.142892  0.408840  1
  O  O37  1  0.456845  0.699489  0.371595  1
  O  O38  1  0.281969  0.574303  0.118657  1
  O  O39  1  0.236474  0.997899  0.086903  1
