# generated using pymatgen
data_Cr3Ni(PO4)4
_symmetry_space_group_name_H-M   'P 1'
_cell_length_a   4.78129980
_cell_length_b   5.77139543
_cell_length_c   9.93351560
_cell_angle_alpha   90.00000000
_cell_angle_beta   90.28159655
_cell_angle_gamma   90.00000000
_symmetry_Int_Tables_number   1
_chemical_formula_structural   Cr3Ni(PO4)4
_chemical_formula_sum   'Cr3 Ni1 P4 O16'
_cell_volume   274.10978567
_cell_formula_units_Z   1
loop_
 _symmetry_equiv_pos_site_id
 _symmetry_equiv_pos_as_xyz
  1  'x, y, z'
loop_
 _atom_site_type_symbol
 _atom_site_label
 _atom_site_symmetry_multiplicity
 _atom_site_fract_x
 _atom_site_fract_y
 _atom_site_fract_z
 _atom_site_occupancy
  Cr  Cr0  1  0.474887  0.000000  0.229134  1
  Cr  Cr1  1  0.529986  0.500000  0.771595  1
  Cr  Cr2  1  0.971815  0.500000  0.269800  1
  Ni  Ni3  1  0.038094  0.000000  0.727980  1
  P  P4  1  0.092214  0.500000  0.594701  1
  P  P5  1  0.412876  0.500000  0.091719  1
  P  P6  1  0.575950  0.000000  0.907109  1
  P  P7  1  0.916248  0.000000  0.407480  1
  O  O8  1  0.164818  0.500000  0.445459  1
  O  O9  1  0.247368  0.296615  0.671361  1
  O  O10  1  0.247368  0.703385  0.671361  1
  O  O11  1  0.231564  0.000000  0.386229  1
  O  O12  1  0.260967  0.000000  0.896137  1
  O  O13  1  0.265338  0.293791  0.170750  1
  O  O14  1  0.265338  0.706209  0.170750  1
  O  O15  1  0.326962  0.500000  0.944502  1
  O  O16  1  0.670979  0.000000  0.054377  1
  O  O17  1  0.716950  0.789427  0.830079  1
  O  O18  1  0.716950  0.210573  0.830079  1
  O  O19  1  0.728817  0.500000  0.109000  1
  O  O20  1  0.776331  0.500000  0.613825  1
  O  O21  1  0.766086  0.794143  0.326731  1
  O  O22  1  0.766086  0.205857  0.326731  1
  O  O23  1  0.836007  0.000000  0.553107  1
