# generated using pymatgen
data_Li3VSi2O7
_symmetry_space_group_name_H-M   'P 1'
_cell_length_a   5.02169140
_cell_length_b   8.98635040
_cell_length_c   12.54352243
_cell_angle_alpha   90.00000000
_cell_angle_beta   90.00000000
_cell_angle_gamma   90.00000000
_symmetry_Int_Tables_number   1
_chemical_formula_structural   Li3VSi2O7
_chemical_formula_sum   'Li12 V4 Si8 O28'
_cell_volume   566.04750422
_cell_formula_units_Z   4
loop_
 _symmetry_equiv_pos_site_id
 _symmetry_equiv_pos_as_xyz
  1  'x, y, z'
loop_
 _atom_site_type_symbol
 _atom_site_label
 _atom_site_symmetry_multiplicity
 _atom_site_fract_x
 _atom_site_fract_y
 _atom_site_fract_z
 _atom_site_occupancy
  Li  Li0  1  0.033646  0.338055  0.090175  1
  Li  Li1  1  0.033646  0.338055  0.409825  1
  Li  Li2  1  0.028006  0.018045  0.250000  1
  Li  Li3  1  0.471994  0.518045  0.250000  1
  Li  Li4  1  0.466354  0.838055  0.090175  1
  Li  Li5  1  0.466354  0.838055  0.409825  1
  Li  Li6  1  0.533646  0.161945  0.590175  1
  Li  Li7  1  0.533646  0.161945  0.909825  1
  Li  Li8  1  0.528006  0.481955  0.750000  1
  Li  Li9  1  0.971994  0.981955  0.750000  1
  Li  Li10  1  0.966354  0.661945  0.909825  1
  Li  Li11  1  0.966354  0.661945  0.590175  1
  V  V12  1  0.000000  0.000000  0.000000  1
  V  V13  1  0.000000  0.000000  0.500000  1
  V  V14  1  0.500000  0.500000  0.500000  1
  V  V15  1  0.500000  0.500000  0.000000  1
  Si  Si16  1  0.011235  0.317157  0.631377  1
  Si  Si17  1  0.011235  0.317157  0.868623  1
  Si  Si18  1  0.488765  0.817157  0.631377  1
  Si  Si19  1  0.488765  0.817157  0.868623  1
  Si  Si20  1  0.511235  0.182843  0.131377  1
  Si  Si21  1  0.511235  0.182843  0.368623  1
  Si  Si22  1  0.988765  0.682843  0.131377  1
  Si  Si23  1  0.988765  0.682843  0.368623  1
  O  O24  1  0.063611  0.861025  0.128335  1
  O  O25  1  0.063611  0.861025  0.371665  1
  O  O26  1  0.088837  0.615217  0.250000  1
  O  O27  1  0.164224  0.601240  0.039373  1
  O  O28  1  0.164224  0.601240  0.460627  1
  O  O29  1  0.173097  0.852287  0.616587  1
  O  O30  1  0.173097  0.852287  0.883413  1
  O  O31  1  0.326903  0.352287  0.616587  1
  O  O32  1  0.326903  0.352287  0.883413  1
  O  O33  1  0.335776  0.101240  0.039373  1
  O  O34  1  0.335776  0.101240  0.460627  1
  O  O35  1  0.411163  0.115217  0.250000  1
  O  O36  1  0.436389  0.361025  0.128335  1
  O  O37  1  0.436389  0.361025  0.371665  1
  O  O38  1  0.563611  0.638975  0.628335  1
  O  O39  1  0.563611  0.638975  0.871665  1
  O  O40  1  0.588837  0.884783  0.750000  1
  O  O41  1  0.664224  0.898760  0.539373  1
  O  O42  1  0.664224  0.898760  0.960627  1
  O  O43  1  0.673097  0.647713  0.116587  1
  O  O44  1  0.673097  0.647713  0.383413  1
  O  O45  1  0.826903  0.147713  0.383413  1
  O  O46  1  0.826903  0.147713  0.116587  1
  O  O47  1  0.835776  0.398760  0.539373  1
  O  O48  1  0.835776  0.398760  0.960627  1
  O  O49  1  0.911163  0.384783  0.750000  1
  O  O50  1  0.936389  0.138975  0.628335  1
  O  O51  1  0.936389  0.138975  0.871665  1
