# generated using pymatgen
data_Na3Ni5O8
_symmetry_space_group_name_H-M   'P 1'
_cell_length_a   5.93052734
_cell_length_b   5.93052734
_cell_length_c   10.25273717
_cell_angle_alpha   80.60972289
_cell_angle_beta   99.39027711
_cell_angle_gamma   119.11047476
_symmetry_Int_Tables_number   1
_chemical_formula_structural   Na3Ni5O8
_chemical_formula_sum   'Na6 Ni10 O16'
_cell_volume   309.35723208
_cell_formula_units_Z   2
loop_
 _symmetry_equiv_pos_site_id
 _symmetry_equiv_pos_as_xyz
  1  'x, y, z'
loop_
 _atom_site_type_symbol
 _atom_site_label
 _atom_site_symmetry_multiplicity
 _atom_site_fract_x
 _atom_site_fract_y
 _atom_site_fract_z
 _atom_site_occupancy
  Na  Na0  1  0.872552  0.620771  0.752254  1
  Na  Na1  1  0.627233  0.372767  0.251080  1
  Na  Na2  1  0.372767  0.627233  0.748920  1
  Na  Na3  1  0.379229  0.127448  0.752254  1
  Na  Na4  1  0.127448  0.379229  0.247746  1
  Na  Na5  1  0.620771  0.872552  0.247746  1
  Ni  Ni6  1  0.248918  0.751082  0.996251  1
  Ni  Ni7  1  0.751367  0.751367  0.000000  1
  Ni  Ni8  1  0.000000  0.500000  0.500000  1
  Ni  Ni9  1  0.751082  0.248918  0.003749  1
  Ni  Ni10  1  0.500000  0.500000  0.500000  1
  Ni  Ni11  1  0.500000  1.000000  0.500000  1
  Ni  Ni12  1  0.248633  0.248633  0.000000  1
  Ni  Ni13  1  0.876010  0.123990  0.750423  1
  Ni  Ni14  1  0.123990  0.876010  0.249577  1
  Ni  Ni15  1  1.000000  0.000000  0.500000  1
  O  O16  1  0.837190  0.685387  0.393707  1
  O  O17  1  0.936857  0.592010  0.107753  1
  O  O18  1  0.563644  0.436356  0.901782  1
  O  O19  1  0.303602  0.696398  0.393475  1
  O  O20  1  0.436356  0.563644  0.098218  1
  O  O21  1  0.696398  0.303602  0.606525  1
  O  O22  1  0.063143  0.407990  0.892247  1
  O  O23  1  0.314613  0.162810  0.393707  1
  O  O24  1  0.162810  0.314613  0.606293  1
  O  O25  1  0.407990  0.063143  0.107753  1
  O  O26  1  0.052573  0.947427  0.889968  1
  O  O27  1  0.172894  0.827106  0.601751  1
  O  O28  1  0.827106  0.172894  0.398249  1
  O  O29  1  0.947427  0.052573  0.110032  1
  O  O30  1  0.685387  0.837190  0.606293  1
  O  O31  1  0.592010  0.936857  0.892247  1
