# generated using pymatgen
data_Li3NiO3
_symmetry_space_group_name_H-M   'P 1'
_cell_length_a   8.70452787
_cell_length_b   8.70452787
_cell_length_c   3.62458146
_cell_angle_alpha   90.00000000
_cell_angle_beta   90.00000000
_cell_angle_gamma   90.00000000
_symmetry_Int_Tables_number   1
_chemical_formula_structural   Li3NiO3
_chemical_formula_sum   'Li12 Ni4 O12'
_cell_volume   274.63020744
_cell_formula_units_Z   4
loop_
 _symmetry_equiv_pos_site_id
 _symmetry_equiv_pos_as_xyz
  1  'x, y, z'
loop_
 _atom_site_type_symbol
 _atom_site_label
 _atom_site_symmetry_multiplicity
 _atom_site_fract_x
 _atom_site_fract_y
 _atom_site_fract_z
 _atom_site_occupancy
  Li  Li0  1  0.359956  0.104517  0.500000  1
  Li  Li1  1  0.604517  0.140044  0.000000  1
  Li  Li2  1  0.164464  0.164464  0.000000  1
  Li  Li3  1  0.664464  0.335536  0.500000  1
  Li  Li4  1  0.104517  0.359956  0.500000  1
  Li  Li5  1  0.859956  0.395483  0.000000  1
  Li  Li6  1  0.140044  0.604517  0.000000  1
  Li  Li7  1  0.895483  0.640044  0.500000  1
  Li  Li8  1  0.335536  0.664464  0.500000  1
  Li  Li9  1  0.835536  0.835536  0.000000  1
  Li  Li10  1  0.395483  0.859956  0.000000  1
  Li  Li11  1  0.640044  0.895483  0.500000  1
  Ni  Ni12  1  0.885235  0.114765  0.500000  1
  Ni  Ni13  1  0.385235  0.385235  0.000000  1
  Ni  Ni14  1  0.614765  0.614765  0.000000  1
  Ni  Ni15  1  0.114765  0.885235  0.500000  1
  O  O16  1  0.101636  0.101636  0.500000  1
  O  O17  1  0.677216  0.111969  0.500000  1
  O  O18  1  0.388031  0.177216  0.000000  1
  O  O19  1  0.888031  0.322784  0.500000  1
  O  O20  1  0.177216  0.388031  0.000000  1
  O  O21  1  0.601636  0.398364  0.000000  1
  O  O22  1  0.398364  0.601636  0.000000  1
  O  O23  1  0.822784  0.611969  0.000000  1
  O  O24  1  0.111969  0.677216  0.500000  1
  O  O25  1  0.611969  0.822784  0.000000  1
  O  O26  1  0.322784  0.888031  0.500000  1
  O  O27  1  0.898364  0.898364  0.500000  1
