# generated using pymatgen
data_BaNa6O4
_symmetry_space_group_name_H-M   'P 1'
_cell_length_a   8.15102124
_cell_length_b   8.15102124
_cell_length_c   5.70658854
_cell_angle_alpha   90.00000000
_cell_angle_beta   90.00000000
_cell_angle_gamma   90.00000000
_symmetry_Int_Tables_number   1
_chemical_formula_structural   BaNa6O4
_chemical_formula_sum   'Ba2 Na12 O8'
_cell_volume   379.14087621
_cell_formula_units_Z   2
loop_
 _symmetry_equiv_pos_site_id
 _symmetry_equiv_pos_as_xyz
  1  'x, y, z'
loop_
 _atom_site_type_symbol
 _atom_site_label
 _atom_site_symmetry_multiplicity
 _atom_site_fract_x
 _atom_site_fract_y
 _atom_site_fract_z
 _atom_site_occupancy
  Ba  Ba0  1  0.500000  0.500000  0.000000  1
  Ba  Ba1  1  0.000000  0.000000  0.500000  1
  Na  Na2  1  0.286935  0.286935  0.500000  1
  Na  Na3  1  0.713065  0.286935  0.500000  1
  Na  Na4  1  0.000000  0.500000  0.474344  1
  Na  Na5  1  0.000000  0.500000  0.974344  1
  Na  Na6  1  0.286935  0.713065  0.500000  1
  Na  Na7  1  0.713065  0.713065  0.500000  1
  Na  Na8  1  0.786935  0.786935  0.000000  1
  Na  Na9  1  0.213065  0.786935  0.000000  1
  Na  Na10  1  0.500000  0.000000  0.025656  1
  Na  Na11  1  0.500000  0.000000  0.525656  1
  Na  Na12  1  0.786935  0.213065  0.000000  1
  Na  Na13  1  0.213065  0.213065  0.000000  1
  O  O14  1  0.000000  0.268530  0.731503  1
  O  O15  1  0.768530  0.500000  0.231503  1
  O  O16  1  0.231470  0.500000  0.231503  1
  O  O17  1  0.000000  0.731470  0.731503  1
  O  O18  1  0.500000  0.768530  0.768497  1
  O  O19  1  0.731470  0.000000  0.268497  1
  O  O20  1  0.268530  0.000000  0.268497  1
  O  O21  1  0.500000  0.231470  0.768497  1
