# generated using pymatgen
data_LiCoP2O7
_symmetry_space_group_name_H-M   'P 1'
_cell_length_a   7.20202974
_cell_length_b   7.88939446
_cell_length_c   9.51543166
_cell_angle_alpha   90.00000000
_cell_angle_beta   110.55712966
_cell_angle_gamma   90.00000000
_symmetry_Int_Tables_number   1
_chemical_formula_structural   LiCoP2O7
_chemical_formula_sum   'Li4 Co4 P8 O28'
_cell_volume   506.23544512
_cell_formula_units_Z   4
loop_
 _symmetry_equiv_pos_site_id
 _symmetry_equiv_pos_as_xyz
  1  'x, y, z'
loop_
 _atom_site_type_symbol
 _atom_site_label
 _atom_site_symmetry_multiplicity
 _atom_site_fract_x
 _atom_site_fract_y
 _atom_site_fract_z
 _atom_site_occupancy
  Li  Li0  1  0.698661  0.978396  0.214418  1
  Li  Li1  1  0.698661  0.521604  0.714418  1
  Li  Li2  1  0.301339  0.021604  0.785582  1
  Li  Li3  1  0.301339  0.478396  0.285582  1
  Co  Co4  1  0.737501  0.992332  0.751445  1
  Co  Co5  1  0.262499  0.492332  0.748555  1
  Co  Co6  1  0.262499  0.007668  0.248555  1
  Co  Co7  1  0.737501  0.507668  0.251445  1
  P  P8  1  0.330355  0.710436  0.047132  1
  P  P9  1  0.669645  0.289564  0.952868  1
  P  P10  1  0.082229  0.239963  0.955020  1
  P  P11  1  0.082229  0.260037  0.455020  1
  P  P12  1  0.669645  0.210436  0.452868  1
  P  P13  1  0.917771  0.760037  0.044980  1
  P  P14  1  0.917771  0.739963  0.544980  1
  P  P15  1  0.330355  0.789564  0.547132  1
  O  O16  1  0.618487  0.106921  0.895433  1
  O  O17  1  0.688476  0.200680  0.617827  1
  O  O18  1  0.189349  0.211447  0.124239  1
  O  O19  1  0.189349  0.288553  0.624239  1
  O  O20  1  0.311524  0.799320  0.382173  1
  O  O21  1  0.799759  0.864235  0.599634  1
  O  O22  1  0.879581  0.340100  0.936628  1
  O  O23  1  0.457436  0.923481  0.654516  1
  O  O24  1  0.120419  0.840100  0.563372  1
  O  O25  1  0.542564  0.423481  0.845484  1
  O  O26  1  0.618487  0.393079  0.395433  1
  O  O27  1  0.810651  0.711447  0.375761  1
  O  O28  1  0.120419  0.659900  0.063372  1
  O  O29  1  0.200241  0.135765  0.400366  1
  O  O30  1  0.311524  0.700680  0.882173  1
  O  O31  1  0.027876  0.421915  0.359507  1
  O  O32  1  0.381513  0.893079  0.104567  1
  O  O33  1  0.972124  0.921915  0.140493  1
  O  O34  1  0.688476  0.299320  0.117827  1
  O  O35  1  0.879581  0.159900  0.436628  1
  O  O36  1  0.200241  0.364235  0.900366  1
  O  O37  1  0.381513  0.606921  0.604567  1
  O  O38  1  0.542564  0.076519  0.345484  1
  O  O39  1  0.457436  0.576519  0.154516  1
  O  O40  1  0.972124  0.578085  0.640493  1
  O  O41  1  0.027876  0.078085  0.859507  1
  O  O42  1  0.810651  0.788553  0.875761  1
  O  O43  1  0.799759  0.635765  0.099634  1
