# generated using pymatgen
data_Zn2Ni3O5
_symmetry_space_group_name_H-M   'P 1'
_cell_length_a   5.21485794
_cell_length_b   5.21485794
_cell_length_c   6.73247323
_cell_angle_alpha   50.04836181
_cell_angle_beta   129.95163819
_cell_angle_gamma   131.77615798
_symmetry_Int_Tables_number   1
_chemical_formula_structural   Zn2Ni3O5
_chemical_formula_sum   'Zn2 Ni3 O5'
_cell_volume   97.03397018
_cell_formula_units_Z   1
loop_
 _symmetry_equiv_pos_site_id
 _symmetry_equiv_pos_as_xyz
  1  'x, y, z'
loop_
 _atom_site_type_symbol
 _atom_site_label
 _atom_site_symmetry_multiplicity
 _atom_site_fract_x
 _atom_site_fract_y
 _atom_site_fract_z
 _atom_site_occupancy
  Zn  Zn0  1  0.400886  0.599114  0.200294  1
  Zn  Zn1  1  0.599114  0.400886  0.799706  1
  Ni  Ni2  1  0.000000  0.000000  0.000000  1
  Ni  Ni3  1  0.200573  0.799427  0.599546  1
  Ni  Ni4  1  0.799427  0.200573  0.400454  1
  O  O5  1  0.905585  0.094415  0.207271  1
  O  O6  1  0.500000  0.500000  0.000000  1
  O  O7  1  0.706392  0.293608  0.605977  1
  O  O8  1  0.094415  0.905585  0.792729  1
  O  O9  1  0.293608  0.706392  0.394023  1
