# generated using pymatgen
data_Li2AlVO4
_symmetry_space_group_name_H-M   'P 1'
_cell_length_a   5.11225558
_cell_length_b   5.89236190
_cell_length_c   7.65385606
_cell_angle_alpha   100.75637071
_cell_angle_beta   108.29609274
_cell_angle_gamma   89.77990431
_symmetry_Int_Tables_number   1
_chemical_formula_structural   Li2AlVO4
_chemical_formula_sum   'Li6 Al3 V3 O12'
_cell_volume   214.68664531
_cell_formula_units_Z   3
loop_
 _symmetry_equiv_pos_site_id
 _symmetry_equiv_pos_as_xyz
  1  'x, y, z'
loop_
 _atom_site_type_symbol
 _atom_site_label
 _atom_site_symmetry_multiplicity
 _atom_site_fract_x
 _atom_site_fract_y
 _atom_site_fract_z
 _atom_site_occupancy
  Li  Li0  1  0.000025  0.579825  0.832789  1
  Li  Li1  1  0.000004  0.741553  0.495870  1
  Li  Li2  1  0.999481  0.095343  0.832512  1
  Li  Li3  1  0.999975  0.420175  0.167211  1
  Li  Li4  1  0.000519  0.904657  0.167488  1
  Li  Li5  1  0.999996  0.258447  0.504130  1
  Al  Al6  1  0.501025  0.342387  0.832375  1
  Al  Al7  1  0.498975  0.657613  0.167625  1
  Al  Al8  1  0.500000  0.500000  0.500000  1
  V  V9  1  0.499398  0.833482  0.834501  1
  V  V10  1  0.500602  0.166518  0.165499  1
  V  V11  1  0.500000  0.000000  0.500000  1
  O  O12  1  0.726671  0.138988  0.988988  1
  O  O13  1  0.715314  0.615792  0.996663  1
  O  O14  1  0.724220  0.934246  0.321544  1
  O  O15  1  0.716224  0.460765  0.329911  1
  O  O16  1  0.721105  0.780883  0.656416  1
  O  O17  1  0.718084  0.307754  0.663091  1
  O  O18  1  0.284686  0.384208  0.003337  1
  O  O19  1  0.273329  0.861012  0.011012  1
  O  O20  1  0.281916  0.692246  0.336909  1
  O  O21  1  0.278895  0.219117  0.343584  1
  O  O22  1  0.283776  0.539235  0.670089  1
  O  O23  1  0.275780  0.065754  0.678456  1
