# generated using pymatgen
data_H12Cl2O13
_symmetry_space_group_name_H-M   'P 1'
_cell_length_a   11.17431257
_cell_length_b   7.23028894
_cell_length_c   15.69823806
_cell_angle_alpha   90.00000000
_cell_angle_beta   125.29023614
_cell_angle_gamma   90.00000000
_symmetry_Int_Tables_number   1
_chemical_formula_structural   H12Cl2O13
_chemical_formula_sum   'H48 Cl8 O52'
_cell_volume   1035.24502468
_cell_formula_units_Z   4
loop_
 _symmetry_equiv_pos_site_id
 _symmetry_equiv_pos_as_xyz
  1  'x, y, z'
loop_
 _atom_site_type_symbol
 _atom_site_label
 _atom_site_symmetry_multiplicity
 _atom_site_fract_x
 _atom_site_fract_y
 _atom_site_fract_z
 _atom_site_occupancy
  H  H0  1  0.420394  0.573247  0.386821  1
  H  H1  1  0.579606  0.073247  0.113179  1
  H  H2  1  0.579606  0.426753  0.613179  1
  H  H3  1  0.420394  0.926753  0.886821  1
  H  H4  1  0.447780  0.917256  0.058901  1
  H  H5  1  0.552220  0.417256  0.441099  1
  H  H6  1  0.552220  0.082744  0.941099  1
  H  H7  1  0.447780  0.582744  0.558901  1
  H  H8  1  0.573498  0.910651  0.190778  1
  H  H9  1  0.426502  0.410651  0.309222  1
  H  H10  1  0.426502  0.089349  0.809222  1
  H  H11  1  0.573498  0.589349  0.690778  1
  H  H12  1  0.632444  0.649735  0.266883  1
  H  H13  1  0.367556  0.149735  0.233117  1
  H  H14  1  0.367556  0.350265  0.733117  1
  H  H15  1  0.632444  0.850265  0.766883  1
  H  H16  1  0.585160  0.801470  0.314501  1
  H  H17  1  0.414840  0.301470  0.185499  1
  H  H18  1  0.414840  0.198530  0.685499  1
  H  H19  1  0.585160  0.698530  0.814501  1
  H  H20  1  0.829834  0.821409  0.371123  1
  H  H21  1  0.170166  0.321409  0.128877  1
  H  H22  1  0.170166  0.178591  0.628877  1
  H  H23  1  0.829834  0.678591  0.871123  1
  H  H24  1  0.991399  0.763168  0.388598  1
  H  H25  1  0.008601  0.263168  0.111402  1
  H  H26  1  0.008601  0.236832  0.611402  1
  H  H27  1  0.991399  0.736832  0.888598  1
  H  H28  1  0.923623  0.984311  0.368950  1
  H  H29  1  0.076377  0.484311  0.131050  1
  H  H30  1  0.076377  0.015689  0.631050  1
  H  H31  1  0.923623  0.515689  0.868950  1
  H  H32  1  0.006822  0.593604  0.292539  1
  H  H33  1  0.993178  0.093604  0.207461  1
  H  H34  1  0.993178  0.406396  0.707461  1
  H  H35  1  0.006822  0.906396  0.792539  1
  H  H36  1  0.071486  0.507385  0.403485  1
  H  H37  1  0.928514  0.007385  0.096515  1
  H  H38  1  0.928514  0.492615  0.596515  1
  H  H39  1  0.071486  0.992615  0.903485  1
  H  H40  1  0.252875  0.667857  0.417959  1
  H  H41  1  0.747125  0.167857  0.082041  1
  H  H42  1  0.747125  0.332143  0.582041  1
  H  H43  1  0.252875  0.832143  0.917959  1
  H  H44  1  0.381458  0.814931  0.462464  1
  H  H45  1  0.618542  0.314931  0.037536  1
  H  H46  1  0.618542  0.185069  0.537536  1
  H  H47  1  0.381458  0.685069  0.962464  1
  Cl  Cl48  1  0.776773  0.667339  0.094792  1
  Cl  Cl49  1  0.223227  0.167339  0.405208  1
  Cl  Cl50  1  0.223227  0.332661  0.905208  1
  Cl  Cl51  1  0.776773  0.832661  0.594792  1
  Cl  Cl52  1  0.248862  0.806352  0.170195  1
  Cl  Cl53  1  0.751138  0.306352  0.329805  1
  Cl  Cl54  1  0.751138  0.193648  0.829805  1
  Cl  Cl55  1  0.248862  0.693648  0.670195  1
  O  O56  1  0.818056  0.761470  0.033181  1
  O  O57  1  0.181944  0.261470  0.466819  1
  O  O58  1  0.181944  0.238530  0.966819  1
  O  O59  1  0.818056  0.738530  0.533181  1
  O  O60  1  0.632942  0.580498  0.024729  1
  O  O61  1  0.367058  0.080498  0.475271  1
  O  O62  1  0.367058  0.419502  0.975271  1
  O  O63  1  0.632942  0.919502  0.524729  1
  O  O64  1  0.885588  0.521890  0.159422  1
  O  O65  1  0.114412  0.021890  0.340578  1
  O  O66  1  0.114412  0.478110  0.840578  1
  O  O67  1  0.885588  0.978110  0.659422  1
  O  O68  1  0.773179  0.798718  0.163520  1
  O  O69  1  0.226821  0.298718  0.336480  1
  O  O70  1  0.226821  0.201282  0.836480  1
  O  O71  1  0.773179  0.701282  0.663520  1
  O  O72  1  0.143563  0.938487  0.093737  1
  O  O73  1  0.856437  0.438487  0.406263  1
  O  O74  1  0.856437  0.061513  0.906263  1
  O  O75  1  0.143563  0.561513  0.593737  1
  O  O76  1  0.370138  0.909338  0.262177  1
  O  O77  1  0.629862  0.409338  0.237823  1
  O  O78  1  0.629862  0.090662  0.737823  1
  O  O79  1  0.370138  0.590662  0.762177  1
  O  O80  1  0.308708  0.692267  0.127075  1
  O  O81  1  0.691292  0.192267  0.372925  1
  O  O82  1  0.691292  0.307733  0.872925  1
  O  O83  1  0.308708  0.807733  0.627075  1
  O  O84  1  0.179188  0.688134  0.206262  1
  O  O85  1  0.820812  0.188134  0.293738  1
  O  O86  1  0.820812  0.311866  0.793738  1
  O  O87  1  0.179188  0.811866  0.706262  1
  O  O88  1  0.514487  0.997713  0.125780  1
  O  O89  1  0.485513  0.497713  0.374220  1
  O  O90  1  0.485513  0.002287  0.874220  1
  O  O91  1  0.514487  0.502287  0.625780  1
  O  O92  1  0.642313  0.783278  0.285686  1
  O  O93  1  0.357687  0.283278  0.214314  1
  O  O94  1  0.357687  0.216722  0.714314  1
  O  O95  1  0.642313  0.716722  0.785686  1
  O  O96  1  0.933416  0.863202  0.402663  1
  O  O97  1  0.066584  0.363202  0.097337  1
  O  O98  1  0.066584  0.136798  0.597337  1
  O  O99  1  0.933416  0.636798  0.902663  1
  O  O100  1  0.065077  0.623945  0.368439  1
  O  O101  1  0.934923  0.123945  0.131561  1
  O  O102  1  0.934923  0.376055  0.631561  1
  O  O103  1  0.065077  0.876055  0.868439  1
  O  O104  1  0.360735  0.680746  0.453179  1
  O  O105  1  0.639265  0.180746  0.046821  1
  O  O106  1  0.639265  0.319254  0.546821  1
  O  O107  1  0.360735  0.819254  0.953179  1
