# generated using pymatgen
data_Li2VCrP2(HO5)2
_symmetry_space_group_name_H-M   'P 1'
_cell_length_a   6.94921498
_cell_length_b   7.38147090
_cell_length_c   7.97392440
_cell_angle_alpha   91.02833232
_cell_angle_beta   92.70858714
_cell_angle_gamma   117.22489611
_symmetry_Int_Tables_number   1
_chemical_formula_structural   Li2VCrP2(HO5)2
_chemical_formula_sum   'Li4 V2 Cr2 P4 H4 O20'
_cell_volume   362.94606716
_cell_formula_units_Z   2
loop_
 _symmetry_equiv_pos_site_id
 _symmetry_equiv_pos_as_xyz
  1  'x, y, z'
loop_
 _atom_site_type_symbol
 _atom_site_label
 _atom_site_symmetry_multiplicity
 _atom_site_fract_x
 _atom_site_fract_y
 _atom_site_fract_z
 _atom_site_occupancy
  Li  Li0  1  0.073059  0.822246  0.674371  1
  Li  Li1  1  0.428601  0.177179  0.825262  1
  Li  Li2  1  0.571399  0.822821  0.174738  1
  Li  Li3  1  0.926941  0.177754  0.325629  1
  V  V4  1  0.000000  0.000000  0.000000  1
  V  V5  1  0.500000  0.500000  0.500000  1
  Cr  Cr6  1  0.000000  0.500000  0.000000  1
  Cr  Cr7  1  0.500000  0.000000  0.500000  1
  P  P8  1  0.479116  0.767018  0.841705  1
  P  P9  1  0.017846  0.232572  0.658387  1
  P  P10  1  0.982154  0.767428  0.341613  1
  P  P11  1  0.520884  0.232982  0.158295  1
  H  H12  1  0.790505  0.659188  0.849222  1
  H  H13  1  0.290904  0.663047  0.349326  1
  H  H14  1  0.709096  0.336953  0.650674  1
  H  H15  1  0.209495  0.340812  0.150778  1
  O  O16  1  0.323123  0.658158  0.980497  1
  O  O17  1  0.113295  0.119733  0.773228  1
  O  O18  1  0.385334  0.879528  0.725587  1
  O  O19  1  0.686791  0.926039  0.941072  1
  O  O20  1  0.189089  0.927938  0.441035  1
  O  O21  1  0.534296  0.618859  0.738716  1
  O  O22  1  0.175114  0.342822  0.519671  1
  O  O23  1  0.034398  0.618713  0.238128  1
  O  O24  1  0.943203  0.722595  0.895396  1
  O  O25  1  0.444425  0.728203  0.392931  1
  O  O26  1  0.555575  0.271797  0.607069  1
  O  O27  1  0.056797  0.277405  0.104604  1
  O  O28  1  0.965602  0.381287  0.761872  1
  O  O29  1  0.824886  0.657178  0.480329  1
  O  O30  1  0.465704  0.381141  0.261284  1
  O  O31  1  0.810911  0.072062  0.558965  1
  O  O32  1  0.313209  0.073961  0.058928  1
  O  O33  1  0.614666  0.120472  0.274413  1
  O  O34  1  0.886705  0.880267  0.226772  1
  O  O35  1  0.676877  0.341842  0.019503  1
