# generated using pymatgen
data_Ba2Ti11O24
_symmetry_space_group_name_H-M   'P 1'
_cell_length_a   7.32914150
_cell_length_b   7.40645561
_cell_length_c   8.97652955
_cell_angle_alpha   101.90005991
_cell_angle_beta   102.08977712
_cell_angle_gamma   87.55033797
_symmetry_Int_Tables_number   1
_chemical_formula_structural   Ba2Ti11O24
_chemical_formula_sum   'Ba2 Ti11 O24'
_cell_volume   466.22532719
_cell_formula_units_Z   1
loop_
 _symmetry_equiv_pos_site_id
 _symmetry_equiv_pos_as_xyz
  1  'x, y, z'
loop_
 _atom_site_type_symbol
 _atom_site_label
 _atom_site_symmetry_multiplicity
 _atom_site_fract_x
 _atom_site_fract_y
 _atom_site_fract_z
 _atom_site_occupancy
  Ba  Ba0  1  0.002959  0.999887  0.224491  1
  Ba  Ba1  1  0.018224  0.005509  0.785761  1
  Ti  Ti2  1  0.473219  0.183765  0.621809  1
  Ti  Ti3  1  0.477184  0.187658  0.265923  1
  Ti  Ti4  1  0.190621  0.508898  0.109975  1
  Ti  Ti5  1  0.177166  0.536757  0.454231  1
  Ti  Ti6  1  0.188492  0.509542  0.789081  1
  Ti  Ti7  1  0.806912  0.479359  0.212233  1
  Ti  Ti8  1  0.802039  0.487526  0.882557  1
  Ti  Ti9  1  0.808943  0.471287  0.546172  1
  Ti  Ti10  1  0.521465  0.835087  0.731973  1
  Ti  Ti11  1  0.505875  0.838409  0.051481  1
  Ti  Ti12  1  0.520184  0.819387  0.390044  1
  O  O13  1  0.332445  0.029043  0.082716  1
  O  O14  1  0.362441  0.043693  0.400858  1
  O  O15  1  0.345795  0.030990  0.708553  1
  O  O16  1  0.286771  0.371329  0.277209  1
  O  O17  1  0.283813  0.378886  0.942490  1
  O  O18  1  0.293710  0.379883  0.611850  1
  O  O19  1  0.048226  0.645343  0.283408  1
  O  O20  1  0.049406  0.647347  0.614594  1
  O  O21  1  0.048709  0.649044  0.950724  1
  O  O22  1  0.623174  0.291968  0.483606  1
  O  O23  1  0.640751  0.295936  0.800254  1
  O  O24  1  0.640263  0.289592  0.174828  1
  O  O25  1  0.378099  0.701024  0.185559  1
  O  O26  1  0.383934  0.701663  0.509669  1
  O  O27  1  0.368406  0.714924  0.844584  1
  O  O28  1  0.951218  0.357402  0.050306  1
  O  O29  1  0.956541  0.359378  0.387513  1
  O  O30  1  0.957264  0.360225  0.716679  1
  O  O31  1  0.710334  0.625967  0.717388  1
  O  O32  1  0.701071  0.619504  0.056365  1
  O  O33  1  0.712298  0.628048  0.390883  1
  O  O34  1  0.656072  0.929044  0.934333  1
  O  O35  1  0.644739  0.950413  0.262117  1
  O  O36  1  0.649182  0.952777  0.603524  1
