# generated using pymatgen
data_Li24Ti7Cr5O36
_symmetry_space_group_name_H-M   'P 1'
_cell_length_a   5.06340604
_cell_length_b   5.06743830
_cell_length_c   28.97833368
_cell_angle_alpha   89.89974504
_cell_angle_beta   89.90235713
_cell_angle_gamma   60.10200560
_symmetry_Int_Tables_number   1
_chemical_formula_structural   Li24Ti7Cr5O36
_chemical_formula_sum   'Li24 Ti7 Cr5 O36'
_cell_volume   644.58453955
_cell_formula_units_Z   1
loop_
 _symmetry_equiv_pos_site_id
 _symmetry_equiv_pos_as_xyz
  1  'x, y, z'
loop_
 _atom_site_type_symbol
 _atom_site_label
 _atom_site_symmetry_multiplicity
 _atom_site_fract_x
 _atom_site_fract_y
 _atom_site_fract_z
 _atom_site_occupancy
  Li  Li0  1  0.835990  0.493655  0.666678  1
  Li  Li1  1  0.833234  0.500190  0.916735  1
  Li  Li2  1  0.501851  0.822165  0.833054  1
  Li  Li3  1  0.169356  0.500478  0.333335  1
  Li  Li4  1  0.163337  0.501866  0.583367  1
  Li  Li5  1  0.166109  0.497043  0.833216  1
  Li  Li6  1  0.835006  0.825124  0.499803  1
  Li  Li7  1  0.500612  0.496410  0.000202  1
  Li  Li8  1  0.497503  0.498600  0.249983  1
  Li  Li9  1  0.505627  0.493618  0.499851  1
  Li  Li10  1  0.157332  0.176767  0.999993  1
  Li  Li11  1  0.164669  0.819638  0.166461  1
  Li  Li12  1  0.833390  0.499988  0.166657  1
  Li  Li13  1  0.170734  0.827478  0.666845  1
  Li  Li14  1  0.494444  0.175966  0.666496  1
  Li  Li15  1  0.512146  0.823905  0.333677  1
  Li  Li16  1  0.817560  0.177099  0.333041  1
  Li  Li17  1  0.832360  0.180730  0.833289  1
  Li  Li18  1  0.842813  0.825276  0.000487  1
  Li  Li19  1  0.502105  0.501986  0.749988  1
  Li  Li20  1  0.160560  0.179319  0.500012  1
  Li  Li21  1  0.829975  0.501769  0.416666  1
  Li  Li22  1  0.501944  0.180388  0.166842  1
  Li  Li23  1  0.168942  0.501558  0.083358  1
  Ti  Ti24  1  0.830663  0.831956  0.749843  1
  Ti  Ti25  1  0.170924  0.832051  0.416749  1
  Ti  Ti26  1  0.501109  0.164588  0.916645  1
  Ti  Ti27  1  0.497045  0.832446  0.083208  1
  Ti  Ti28  1  0.169442  0.167388  0.250145  1
  Ti  Ti29  1  0.166302  0.833798  0.916698  1
  Ti  Ti30  1  0.504702  0.830612  0.583495  1
  Cr  Cr31  1  0.168897  0.167285  0.750092  1
  Cr  Cr32  1  0.497381  0.167485  0.416556  1
  Cr  Cr33  1  0.835396  0.167590  0.083539  1
  Cr  Cr34  1  0.831519  0.166233  0.583153  1
  Cr  Cr35  1  0.831440  0.832263  0.249846  1
  O  O36  1  0.853166  0.504150  0.788802  1
  O  O37  1  0.146215  0.490551  0.711848  1
  O  O38  1  0.196472  0.490843  0.454787  1
  O  O39  1  0.478475  0.855006  0.954651  1
  O  O40  1  0.503370  0.852994  0.711751  1
  O  O41  1  0.476089  0.504780  0.377825  1
  O  O42  1  0.188413  0.144784  0.878806  1
  O  O43  1  0.520348  0.503806  0.122288  1
  O  O44  1  0.809997  0.852305  0.621585  1
  O  O45  1  0.827709  0.860584  0.379480  1
  O  O46  1  0.832861  0.856156  0.878653  1
  O  O47  1  0.489731  0.147302  0.787313  1
  O  O48  1  0.812852  0.490691  0.045342  1
  O  O49  1  0.529307  0.147705  0.546004  1
  O  O50  1  0.139044  0.855994  0.287268  1
  O  O51  1  0.144606  0.860680  0.787185  1
  O  O52  1  0.170481  0.852897  0.045252  1
  O  O53  1  0.160586  0.861104  0.546033  1
  O  O54  1  0.827958  0.144969  0.453718  1
  O  O55  1  0.833569  0.144771  0.954527  1
  O  O56  1  0.855528  0.139211  0.212786  1
  O  O57  1  0.860353  0.145088  0.712890  1
  O  O58  1  0.475669  0.854185  0.454955  1
  O  O59  1  0.189191  0.499572  0.955257  1
  O  O60  1  0.510249  0.853440  0.212486  1
  O  O61  1  0.156314  0.146624  0.120883  1
  O  O62  1  0.161716  0.144333  0.620390  1
  O  O63  1  0.195944  0.147796  0.379243  1
  O  O64  1  0.476823  0.500549  0.878067  1
  O  O65  1  0.811373  0.860709  0.120540  1
  O  O66  1  0.530002  0.489692  0.621457  1
  O  O67  1  0.496574  0.147031  0.288068  1
  O  O68  1  0.526865  0.144926  0.046262  1
  O  O69  1  0.809274  0.504315  0.544414  1
  O  O70  1  0.854229  0.509502  0.288093  1
  O  O71  1  0.146226  0.496245  0.211093  1
