# generated using pymatgen
data_MgV3O8
_symmetry_space_group_name_H-M   'P 1'
_cell_length_a   6.83340132
_cell_length_b   6.83340132
_cell_length_c   13.95579082
_cell_angle_alpha   81.44545072
_cell_angle_beta   98.55454928
_cell_angle_gamma   101.01569587
_symmetry_Int_Tables_number   1
_chemical_formula_structural   MgV3O8
_chemical_formula_sum   'Mg4 V12 O32'
_cell_volume   627.66813691
_cell_formula_units_Z   4
loop_
 _symmetry_equiv_pos_site_id
 _symmetry_equiv_pos_as_xyz
  1  'x, y, z'
loop_
 _atom_site_type_symbol
 _atom_site_label
 _atom_site_symmetry_multiplicity
 _atom_site_fract_x
 _atom_site_fract_y
 _atom_site_fract_z
 _atom_site_occupancy
  Mg  Mg0  1  0.149318  0.713361  0.854523  1
  Mg  Mg1  1  0.713361  0.149318  0.645477  1
  Mg  Mg2  1  0.286639  0.850682  0.354523  1
  Mg  Mg3  1  0.850682  0.286639  0.145477  1
  V  V4  1  0.266416  0.235063  0.888449  1
  V  V5  1  0.235063  0.266416  0.611551  1
  V  V6  1  0.170885  0.328322  0.353548  1
  V  V7  1  0.787158  0.348818  0.866267  1
  V  V8  1  0.328322  0.170885  0.146452  1
  V  V9  1  0.348818  0.787158  0.633733  1
  V  V10  1  0.651182  0.212842  0.366267  1
  V  V11  1  0.671678  0.829115  0.853548  1
  V  V12  1  0.212842  0.651182  0.133733  1
  V  V13  1  0.829115  0.671678  0.646452  1
  V  V14  1  0.764937  0.733584  0.388449  1
  V  V15  1  0.733584  0.764937  0.111551  1
  O  O16  1  0.089551  0.401860  0.858013  1
  O  O17  1  0.012052  0.170149  0.648884  1
  O  O18  1  0.333180  0.491544  0.653175  1
  O  O19  1  0.182976  0.326834  0.479511  1
  O  O20  1  0.491544  0.333180  0.846825  1
  O  O21  1  0.170149  0.012052  0.851116  1
  O  O22  1  0.167402  0.343401  0.157905  1
  O  O23  1  0.082767  0.751622  0.687563  1
  O  O24  1  0.753979  0.428098  0.693398  1
  O  O25  1  0.401860  0.089551  0.641987  1
  O  O26  1  0.194132  0.694113  0.012042  1
  O  O27  1  0.805868  0.305887  0.987958  1
  O  O28  1  0.343401  0.167402  0.342095  1
  O  O29  1  0.326834  0.182976  0.020489  1
  O  O30  1  0.248378  0.917233  0.187563  1
  O  O31  1  0.571902  0.246021  0.193398  1
  O  O32  1  0.305887  0.805868  0.512042  1
  O  O33  1  0.694113  0.194132  0.487958  1
  O  O34  1  0.751622  0.082767  0.812437  1
  O  O35  1  0.428098  0.753979  0.806602  1
  O  O36  1  0.673166  0.817024  0.979511  1
  O  O37  1  0.656599  0.832598  0.657905  1
  O  O38  1  0.598140  0.910449  0.358013  1
  O  O39  1  0.246021  0.571902  0.306602  1
  O  O40  1  0.917233  0.248378  0.312437  1
  O  O41  1  0.832598  0.656599  0.842095  1
  O  O42  1  0.508456  0.666820  0.153175  1
  O  O43  1  0.829851  0.987948  0.148884  1
  O  O44  1  0.817024  0.673166  0.520489  1
  O  O45  1  0.666820  0.508456  0.346825  1
  O  O46  1  0.987948  0.829851  0.351116  1
  O  O47  1  0.910449  0.598140  0.141987  1
