# generated using pymatgen
data_Li5NiO3F2
_symmetry_space_group_name_H-M   'P 1'
_cell_length_a   5.07913020
_cell_length_b   5.07913020
_cell_length_c   5.86265625
_cell_angle_alpha   72.65121467
_cell_angle_beta   107.34878533
_cell_angle_gamma   134.48283992
_symmetry_Int_Tables_number   1
_chemical_formula_structural   Li5NiO3F2
_chemical_formula_sum   'Li5 Ni1 O3 F2'
_cell_volume   102.10809937
_cell_formula_units_Z   1
loop_
 _symmetry_equiv_pos_site_id
 _symmetry_equiv_pos_as_xyz
  1  'x, y, z'
loop_
 _atom_site_type_symbol
 _atom_site_label
 _atom_site_symmetry_multiplicity
 _atom_site_fract_x
 _atom_site_fract_y
 _atom_site_fract_z
 _atom_site_occupancy
  Li  Li0  1  0.325797  0.674203  0.625102  1
  Li  Li1  1  0.306257  0.693743  0.197680  1
  Li  Li2  1  0.693743  0.306257  0.802320  1
  Li  Li3  1  0.674203  0.325797  0.374898  1
  Li  Li4  1  0.000000  0.000000  0.000000  1
  Ni  Ni5  1  0.000000  0.000000  0.500000  1
  O  O6  1  0.862098  0.137902  0.676695  1
  O  O7  1  0.137902  0.862098  0.323305  1
  O  O8  1  0.500000  0.500000  0.500000  1
  F  F9  1  0.822744  0.177256  0.154437  1
  F  F10  1  0.177256  0.822744  0.845563  1
