# generated using pymatgen
data_Na3Ti8O16
_symmetry_space_group_name_H-M   'P 1'
_cell_length_a   6.12544076
_cell_length_b   8.66211210
_cell_length_c   12.26396239
_cell_angle_alpha   90.00000000
_cell_angle_beta   90.00000000
_cell_angle_gamma   90.00000000
_symmetry_Int_Tables_number   1
_chemical_formula_structural   Na3Ti8O16
_chemical_formula_sum   'Na6 Ti16 O32'
_cell_volume   650.71670214
_cell_formula_units_Z   2
loop_
 _symmetry_equiv_pos_site_id
 _symmetry_equiv_pos_as_xyz
  1  'x, y, z'
loop_
 _atom_site_type_symbol
 _atom_site_label
 _atom_site_symmetry_multiplicity
 _atom_site_fract_x
 _atom_site_fract_y
 _atom_site_fract_z
 _atom_site_occupancy
  Na  Na0  1  0.000000  0.622833  0.000000  1
  Na  Na1  1  0.000000  0.873837  0.251314  1
  Na  Na2  1  0.000000  0.873837  0.748686  1
  Na  Na3  1  0.500000  0.126163  0.751314  1
  Na  Na4  1  0.500000  0.126163  0.248686  1
  Na  Na5  1  0.500000  0.377167  0.500000  1
  Ti  Ti6  1  0.250000  0.500000  0.750000  1
  Ti  Ti7  1  0.250000  0.500000  0.250000  1
  Ti  Ti8  1  0.750000  0.500000  0.750000  1
  Ti  Ti9  1  0.750000  0.500000  0.250000  1
  Ti  Ti10  1  0.500000  0.748369  0.622058  1
  Ti  Ti11  1  0.500000  0.742455  0.876234  1
  Ti  Ti12  1  0.500000  0.748369  0.377942  1
  Ti  Ti13  1  0.500000  0.742455  0.123766  1
  Ti  Ti14  1  0.246443  0.995159  0.500000  1
  Ti  Ti15  1  0.753557  0.995159  0.500000  1
  Ti  Ti16  1  0.746443  0.004841  0.000000  1
  Ti  Ti17  1  0.253557  0.004841  0.000000  1
  Ti  Ti18  1  0.000000  0.257545  0.623766  1
  Ti  Ti19  1  0.000000  0.251631  0.877942  1
  Ti  Ti20  1  0.000000  0.251631  0.122058  1
  Ti  Ti21  1  0.000000  0.257545  0.376234  1
  O  O22  1  0.500000  0.517526  0.644047  1
  O  O23  1  0.500000  0.517301  0.857372  1
  O  O24  1  0.500000  0.517301  0.142628  1
  O  O25  1  0.500000  0.517526  0.355953  1
  O  O26  1  0.712298  0.731354  0.750761  1
  O  O27  1  0.712298  0.731354  0.249239  1
  O  O28  1  0.287702  0.731354  0.249239  1
  O  O29  1  0.287702  0.731354  0.750761  1
  O  O30  1  0.715032  0.766847  0.500000  1
  O  O31  1  0.284968  0.766847  0.500000  1
  O  O32  1  0.713869  0.768953  0.000000  1
  O  O33  1  0.286131  0.768953  0.000000  1
  O  O34  1  0.500000  0.981039  0.393191  1
  O  O35  1  0.500000  0.980853  0.893483  1
  O  O36  1  0.500000  0.981039  0.606809  1
  O  O37  1  0.500000  0.980853  0.106517  1
  O  O38  1  0.000000  0.018961  0.893191  1
  O  O39  1  0.000000  0.019147  0.393483  1
  O  O40  1  0.000000  0.019147  0.606517  1
  O  O41  1  0.000000  0.018961  0.106809  1
  O  O42  1  0.784968  0.233153  0.000000  1
  O  O43  1  0.213869  0.231047  0.500000  1
  O  O44  1  0.215032  0.233153  0.000000  1
  O  O45  1  0.786131  0.231047  0.500000  1
  O  O46  1  0.212298  0.268646  0.749239  1
  O  O47  1  0.212298  0.268646  0.250761  1
  O  O48  1  0.787702  0.268646  0.250761  1
  O  O49  1  0.787702  0.268646  0.749239  1
  O  O50  1  0.000000  0.482474  0.855953  1
  O  O51  1  0.000000  0.482699  0.642628  1
  O  O52  1  0.000000  0.482474  0.144047  1
  O  O53  1  0.000000  0.482699  0.357372  1
