# generated using pymatgen
data_Na3NiBAsO7
_symmetry_space_group_name_H-M   'P 1'
_cell_length_a   5.21613176
_cell_length_b   6.95765907
_cell_length_c   8.99765487
_cell_angle_alpha   90.00000000
_cell_angle_beta   92.03955664
_cell_angle_gamma   90.00000000
_symmetry_Int_Tables_number   1
_chemical_formula_structural   Na3NiBAsO7
_chemical_formula_sum   'Na6 Ni2 B2 As2 O14'
_cell_volume   326.33662160
_cell_formula_units_Z   2
loop_
 _symmetry_equiv_pos_site_id
 _symmetry_equiv_pos_as_xyz
  1  'x, y, z'
loop_
 _atom_site_type_symbol
 _atom_site_label
 _atom_site_symmetry_multiplicity
 _atom_site_fract_x
 _atom_site_fract_y
 _atom_site_fract_z
 _atom_site_occupancy
  Na  Na0  1  0.237561  0.750000  0.080578  1
  Na  Na1  1  0.748839  0.996688  0.254260  1
  Na  Na2  1  0.748839  0.503312  0.254260  1
  Na  Na3  1  0.251161  0.496688  0.745740  1
  Na  Na4  1  0.251161  0.003312  0.745740  1
  Na  Na5  1  0.762439  0.250000  0.919422  1
  Ni  Ni6  1  0.213568  0.250000  0.332798  1
  Ni  Ni7  1  0.786432  0.750000  0.667202  1
  B  B8  1  0.269971  0.250000  0.067485  1
  B  B9  1  0.730029  0.750000  0.932515  1
  As  As10  1  0.285129  0.750000  0.421873  1
  As  As11  1  0.714871  0.250000  0.578127  1
  O  O12  1  0.699833  0.750000  0.080035  1
  O  O13  1  0.034537  0.250000  0.134166  1
  O  O14  1  0.468779  0.250000  0.173877  1
  O  O15  1  0.217030  0.941643  0.307501  1
  O  O16  1  0.217030  0.558357  0.307501  1
  O  O17  1  0.610178  0.750000  0.469319  1
  O  O18  1  0.868859  0.250000  0.413665  1
  O  O19  1  0.131141  0.750000  0.586335  1
  O  O20  1  0.389822  0.250000  0.530681  1
  O  O21  1  0.782970  0.441643  0.692499  1
  O  O22  1  0.782970  0.058357  0.692499  1
  O  O23  1  0.531221  0.750000  0.826123  1
  O  O24  1  0.965463  0.750000  0.865834  1
  O  O25  1  0.300167  0.250000  0.919965  1
