# generated using pymatgen
data_Na3VBAsO7
_symmetry_space_group_name_H-M   'P 1'
_cell_length_a   5.37142724
_cell_length_b   6.75510782
_cell_length_c   9.16493561
_cell_angle_alpha   90.00000000
_cell_angle_beta   91.36322417
_cell_angle_gamma   90.00000000
_symmetry_Int_Tables_number   1
_chemical_formula_structural   Na3VBAsO7
_chemical_formula_sum   'Na6 V2 B2 As2 O14'
_cell_volume   332.45162770
_cell_formula_units_Z   2
loop_
 _symmetry_equiv_pos_site_id
 _symmetry_equiv_pos_as_xyz
  1  'x, y, z'
loop_
 _atom_site_type_symbol
 _atom_site_label
 _atom_site_symmetry_multiplicity
 _atom_site_fract_x
 _atom_site_fract_y
 _atom_site_fract_z
 _atom_site_occupancy
  Na  Na0  1  0.244537  0.750000  0.072431  1
  Na  Na1  1  0.752815  0.001313  0.241002  1
  Na  Na2  1  0.752815  0.498687  0.241002  1
  Na  Na3  1  0.247185  0.501313  0.758998  1
  Na  Na4  1  0.247185  0.998687  0.758998  1
  Na  Na5  1  0.755463  0.250000  0.927569  1
  V  V6  1  0.216866  0.250000  0.326875  1
  V  V7  1  0.783134  0.750000  0.673125  1
  B  B8  1  0.269777  0.250000  0.061451  1
  B  B9  1  0.730223  0.750000  0.938549  1
  As  As10  1  0.288566  0.750000  0.422777  1
  As  As11  1  0.711434  0.250000  0.577223  1
  O  O12  1  0.685122  0.750000  0.082773  1
  O  O13  1  0.034745  0.250000  0.124021  1
  O  O14  1  0.464168  0.250000  0.170667  1
  O  O15  1  0.205898  0.946666  0.311124  1
  O  O16  1  0.205898  0.553334  0.311124  1
  O  O17  1  0.604469  0.750000  0.460149  1
  O  O18  1  0.868537  0.250000  0.416334  1
  O  O19  1  0.131463  0.750000  0.583666  1
  O  O20  1  0.395531  0.250000  0.539851  1
  O  O21  1  0.794102  0.446666  0.688876  1
  O  O22  1  0.794102  0.053334  0.688876  1
  O  O23  1  0.535832  0.750000  0.829333  1
  O  O24  1  0.965255  0.750000  0.875979  1
  O  O25  1  0.314878  0.250000  0.917227  1
