# generated using pymatgen
data_Li2MnPHO5
_symmetry_space_group_name_H-M   'P 1'
_cell_length_a   5.42168973
_cell_length_b   5.57502312
_cell_length_c   7.79555529
_cell_angle_alpha   108.06397742
_cell_angle_beta   108.20794816
_cell_angle_gamma   94.14484702
_symmetry_Int_Tables_number   1
_chemical_formula_structural   Li2MnPHO5
_chemical_formula_sum   'Li4 Mn2 P2 H2 O10'
_cell_volume   209.03152631
_cell_formula_units_Z   2
loop_
 _symmetry_equiv_pos_site_id
 _symmetry_equiv_pos_as_xyz
  1  'x, y, z'
loop_
 _atom_site_type_symbol
 _atom_site_label
 _atom_site_symmetry_multiplicity
 _atom_site_fract_x
 _atom_site_fract_y
 _atom_site_fract_z
 _atom_site_occupancy
  Li  Li0  1  0.208599  0.572951  0.196407  1
  Li  Li1  1  0.460391  0.128484  0.829243  1
  Li  Li2  1  0.539609  0.871516  0.170757  1
  Li  Li3  1  0.791401  0.427049  0.803593  1
  Mn  Mn4  1  0.000000  0.000000  0.000000  1
  Mn  Mn5  1  0.000000  0.000000  0.500000  1
  P  P6  1  0.670241  0.376536  0.226164  1
  P  P7  1  0.329759  0.623464  0.773836  1
  H  H8  1  0.663465  0.925823  0.646994  1
  H  H9  1  0.336535  0.074177  0.353006  1
  O  O10  1  0.871148  0.357490  0.118400  1
  O  O11  1  0.386733  0.254747  0.069404  1
  O  O12  1  0.272954  0.781549  0.638951  1
  O  O13  1  0.664369  0.662204  0.328712  1
  O  O14  1  0.816357  0.065527  0.727178  1
  O  O15  1  0.183643  0.934473  0.272822  1
  O  O16  1  0.335631  0.337796  0.671288  1
  O  O17  1  0.727046  0.218451  0.361049  1
  O  O18  1  0.613267  0.745253  0.930596  1
  O  O19  1  0.128852  0.642510  0.881600  1
