# generated using pymatgen
data_SiH10C2N4(OF3)2
_symmetry_space_group_name_H-M   'P 1'
_cell_length_a   8.29000110
_cell_length_b   9.22598772
_cell_length_c   12.73360216
_cell_angle_alpha   90.00000000
_cell_angle_beta   90.00000000
_cell_angle_gamma   90.00000000
_symmetry_Int_Tables_number   1
_chemical_formula_structural   SiH10C2N4(OF3)2
_chemical_formula_sum   'Si4 H40 C8 N16 O8 F24'
_cell_volume   973.90980308
_cell_formula_units_Z   4
loop_
 _symmetry_equiv_pos_site_id
 _symmetry_equiv_pos_as_xyz
  1  'x, y, z'
loop_
 _atom_site_type_symbol
 _atom_site_label
 _atom_site_symmetry_multiplicity
 _atom_site_fract_x
 _atom_site_fract_y
 _atom_site_fract_z
 _atom_site_occupancy
  Si  Si0  1  0.000000  0.500000  0.500000  1
  Si  Si1  1  0.500000  0.000000  0.500000  1
  Si  Si2  1  0.500000  0.500000  0.000000  1
  Si  Si3  1  0.000000  0.000000  0.000000  1
  H  H4  1  0.586998  0.734512  0.665537  1
  H  H5  1  0.913002  0.234512  0.334463  1
  H  H6  1  0.086998  0.265488  0.834463  1
  H  H7  1  0.413002  0.765488  0.165537  1
  H  H8  1  0.413002  0.265488  0.334463  1
  H  H9  1  0.086998  0.765488  0.665537  1
  H  H10  1  0.913002  0.734512  0.165537  1
  H  H11  1  0.586998  0.234512  0.834463  1
  H  H12  1  0.745313  0.610006  0.651931  1
  H  H13  1  0.754687  0.110006  0.348069  1
  H  H14  1  0.245313  0.389994  0.848069  1
  H  H15  1  0.254687  0.889994  0.151931  1
  H  H16  1  0.254687  0.389994  0.348069  1
  H  H17  1  0.245313  0.889994  0.651931  1
  H  H18  1  0.754687  0.610006  0.151931  1
  H  H19  1  0.745313  0.110006  0.848069  1
  H  H20  1  0.669546  0.371856  0.594786  1
  H  H21  1  0.830454  0.871856  0.405214  1
  H  H22  1  0.169546  0.628144  0.905214  1
  H  H23  1  0.330454  0.128144  0.094786  1
  H  H24  1  0.330454  0.628144  0.405214  1
  H  H25  1  0.169546  0.128144  0.594786  1
  H  H26  1  0.830454  0.371856  0.094786  1
  H  H27  1  0.669546  0.871856  0.905214  1
  H  H28  1  0.467490  0.318149  0.601959  1
  H  H29  1  0.032510  0.818149  0.398041  1
  H  H30  1  0.967490  0.681851  0.898041  1
  H  H31  1  0.532510  0.181851  0.101959  1
  H  H32  1  0.532510  0.681851  0.398041  1
  H  H33  1  0.967490  0.181851  0.601959  1
  H  H34  1  0.032510  0.318149  0.101959  1
  H  H35  1  0.467490  0.818149  0.898041  1
  H  H36  1  0.284386  0.502990  0.624558  1
  H  H37  1  0.215614  0.002990  0.375442  1
  H  H38  1  0.784386  0.497010  0.875442  1
  H  H39  1  0.715614  0.997010  0.124558  1
  H  H40  1  0.715614  0.497010  0.375442  1
  H  H41  1  0.784386  0.997010  0.624558  1
  H  H42  1  0.215614  0.502990  0.124558  1
  H  H43  1  0.284386  0.002990  0.875442  1
  C  C44  1  0.514968  0.529024  0.646169  1
  C  C45  1  0.985032  0.029024  0.353831  1
  C  C46  1  0.014968  0.470976  0.853831  1
  C  C47  1  0.485032  0.970976  0.146169  1
  C  C48  1  0.485032  0.470976  0.353831  1
  C  C49  1  0.014968  0.970976  0.646169  1
  C  C50  1  0.985032  0.529024  0.146169  1
  C  C51  1  0.514968  0.029024  0.853831  1
  N  N52  1  0.625734  0.629469  0.665740  1
  N  N53  1  0.874266  0.129469  0.334260  1
  N  N54  1  0.125734  0.370531  0.834260  1
  N  N55  1  0.374266  0.870531  0.165740  1
  N  N56  1  0.374266  0.370531  0.334260  1
  N  N57  1  0.125734  0.870531  0.665740  1
  N  N58  1  0.874266  0.629469  0.165740  1
  N  N59  1  0.625734  0.129469  0.834260  1
  N  N60  1  0.552952  0.395744  0.615435  1
  N  N61  1  0.947048  0.895744  0.384565  1
  N  N62  1  0.052952  0.604256  0.884565  1
  N  N63  1  0.447048  0.104256  0.115435  1
  N  N64  1  0.447048  0.604256  0.384565  1
  N  N65  1  0.052952  0.104256  0.615435  1
  N  N66  1  0.947048  0.395744  0.115435  1
  N  N67  1  0.552952  0.895744  0.884565  1
  O  O68  1  0.363693  0.568960  0.661359  1
  O  O69  1  0.136307  0.068960  0.338641  1
  O  O70  1  0.863693  0.431040  0.838641  1
  O  O71  1  0.636307  0.931040  0.161359  1
  O  O72  1  0.636307  0.431040  0.338641  1
  O  O73  1  0.863693  0.931040  0.661359  1
  O  O74  1  0.136307  0.568960  0.161359  1
  O  O75  1  0.363693  0.068960  0.838641  1
  F  F76  1  0.968582  0.595559  0.613526  1
  F  F77  1  0.531418  0.095559  0.386474  1
  F  F78  1  0.468582  0.404441  0.886474  1
  F  F79  1  0.031418  0.904441  0.113526  1
  F  F80  1  0.031418  0.404441  0.386474  1
  F  F81  1  0.468582  0.904441  0.613526  1
  F  F82  1  0.531418  0.595559  0.113526  1
  F  F83  1  0.968582  0.095559  0.886474  1
  F  F84  1  0.121689  0.636138  0.453292  1
  F  F85  1  0.378311  0.136138  0.546708  1
  F  F86  1  0.621689  0.363862  0.046708  1
  F  F87  1  0.878311  0.863862  0.953292  1
  F  F88  1  0.878311  0.363862  0.546708  1
  F  F89  1  0.621689  0.863862  0.453292  1
  F  F90  1  0.378311  0.636138  0.953292  1
  F  F91  1  0.121689  0.136138  0.046708  1
  F  F92  1  0.165518  0.416001  0.556554  1
  F  F93  1  0.334482  0.916001  0.443446  1
  F  F94  1  0.665518  0.583999  0.943446  1
  F  F95  1  0.834482  0.083999  0.056554  1
  F  F96  1  0.834482  0.583999  0.443446  1
  F  F97  1  0.665518  0.083999  0.556554  1
  F  F98  1  0.334482  0.416001  0.056554  1
  F  F99  1  0.165518  0.916001  0.943446  1
