# generated using pymatgen
data_LiFeSiO4
_symmetry_space_group_name_H-M   'P 1'
_cell_length_a   8.22963862
_cell_length_b   8.22963862
_cell_length_c   8.22963862
_cell_angle_alpha   36.81163808
_cell_angle_beta   36.81163808
_cell_angle_gamma   36.81163808
_symmetry_Int_Tables_number   1
_chemical_formula_structural   LiFeSiO4
_chemical_formula_sum   'Li2 Fe2 Si2 O8'
_cell_volume   179.23996704
_cell_formula_units_Z   2
loop_
 _symmetry_equiv_pos_site_id
 _symmetry_equiv_pos_as_xyz
  1  'x, y, z'
loop_
 _atom_site_type_symbol
 _atom_site_label
 _atom_site_symmetry_multiplicity
 _atom_site_fract_x
 _atom_site_fract_y
 _atom_site_fract_z
 _atom_site_occupancy
  Li  Li0  1  0.634063  0.634063  0.634063  1
  Li  Li1  1  0.365937  0.365937  0.365937  1
  Fe  Fe2  1  0.233963  0.233963  0.233963  1
  Fe  Fe3  1  0.766037  0.766037  0.766037  1
  Si  Si4  1  0.915845  0.915845  0.915845  1
  Si  Si5  1  0.084155  0.084155  0.084155  1
  O  O6  1  0.227211  0.623361  0.965228  1
  O  O7  1  0.034772  0.772789  0.376639  1
  O  O8  1  0.965228  0.227211  0.623361  1
  O  O9  1  0.772789  0.376639  0.034772  1
  O  O10  1  0.376639  0.034772  0.772789  1
  O  O11  1  0.844973  0.844973  0.844973  1
  O  O12  1  0.155027  0.155027  0.155027  1
  O  O13  1  0.623361  0.965228  0.227211  1
