# generated using pymatgen
data_Mg2Ti7O15
_symmetry_space_group_name_H-M   'P 1'
_cell_length_a   5.25835160
_cell_length_b   10.08269589
_cell_length_c   10.71706744
_cell_angle_alpha   90.00000000
_cell_angle_beta   96.02274266
_cell_angle_gamma   90.00000000
_symmetry_Int_Tables_number   1
_chemical_formula_structural   Mg2Ti7O15
_chemical_formula_sum   'Mg4 Ti14 O30'
_cell_volume   565.06505418
_cell_formula_units_Z   2
loop_
 _symmetry_equiv_pos_site_id
 _symmetry_equiv_pos_as_xyz
  1  'x, y, z'
loop_
 _atom_site_type_symbol
 _atom_site_label
 _atom_site_symmetry_multiplicity
 _atom_site_fract_x
 _atom_site_fract_y
 _atom_site_fract_z
 _atom_site_occupancy
  Mg  Mg0  1  0.491261  0.750000  0.102247  1
  Mg  Mg1  1  0.508739  0.250000  0.897753  1
  Mg  Mg2  1  0.174754  0.250000  0.565014  1
  Mg  Mg3  1  0.825246  0.750000  0.434986  1
  Ti  Ti4  1  0.393531  0.061514  0.119664  1
  Ti  Ti5  1  0.393531  0.438486  0.119664  1
  Ti  Ti6  1  0.606469  0.561514  0.880336  1
  Ti  Ti7  1  0.606469  0.938486  0.880336  1
  Ti  Ti8  1  0.274817  0.562453  0.543197  1
  Ti  Ti9  1  0.274817  0.937547  0.543197  1
  Ti  Ti10  1  0.061036  0.068300  0.786872  1
  Ti  Ti11  1  0.061036  0.431700  0.786872  1
  Ti  Ti12  1  0.725183  0.062453  0.456803  1
  Ti  Ti13  1  0.725183  0.437547  0.456803  1
  Ti  Ti14  1  0.158150  0.750000  0.768449  1
  Ti  Ti15  1  0.841850  0.250000  0.231551  1
  Ti  Ti16  1  0.938964  0.931700  0.213128  1
  Ti  Ti17  1  0.938964  0.568300  0.213128  1
  O  O18  1  0.240495  0.888259  0.152037  1
  O  O19  1  0.240495  0.611741  0.152037  1
  O  O20  1  0.314563  0.434224  0.937150  1
  O  O21  1  0.314563  0.065776  0.937150  1
  O  O22  1  0.205575  0.250000  0.758930  1
  O  O23  1  0.548242  0.250000  0.096457  1
  O  O24  1  0.451758  0.750000  0.903543  1
  O  O25  1  0.685437  0.934224  0.062850  1
  O  O26  1  0.349314  0.569023  0.729367  1
  O  O27  1  0.349314  0.930977  0.729367  1
  O  O28  1  0.685437  0.565776  0.062850  1
  O  O29  1  0.759505  0.388259  0.847963  1
  O  O30  1  0.425163  0.386360  0.515428  1
  O  O31  1  0.759505  0.111741  0.847963  1
  O  O32  1  0.425163  0.113640  0.515428  1
  O  O33  1  0.914821  0.880894  0.816958  1
  O  O34  1  0.914821  0.619106  0.816958  1
  O  O35  1  0.574837  0.613640  0.484572  1
  O  O36  1  0.574837  0.886360  0.484572  1
  O  O37  1  0.978126  0.066543  0.603417  1
  O  O38  1  0.650686  0.430977  0.270633  1
  O  O39  1  0.978126  0.433457  0.603417  1
  O  O40  1  0.650686  0.069023  0.270633  1
  O  O41  1  0.874510  0.250000  0.418536  1
  O  O42  1  0.125490  0.750000  0.581464  1
  O  O43  1  0.794425  0.750000  0.241070  1
  O  O44  1  0.021874  0.933457  0.396583  1
  O  O45  1  0.021874  0.566543  0.396583  1
  O  O46  1  0.085179  0.380894  0.183042  1
  O  O47  1  0.085179  0.119106  0.183042  1
