# generated using pymatgen
data_Li3MnF6
_symmetry_space_group_name_H-M   'P 1'
_cell_length_a   8.56539346
_cell_length_b   8.56539346
_cell_length_c   10.39441786
_cell_angle_alpha   83.53445995
_cell_angle_beta   96.46554005
_cell_angle_gamma   118.80811563
_symmetry_Int_Tables_number   1
_chemical_formula_structural   Li3MnF6
_chemical_formula_sum   'Li18 Mn6 F36'
_cell_volume   662.47394123
_cell_formula_units_Z   6
loop_
 _symmetry_equiv_pos_site_id
 _symmetry_equiv_pos_as_xyz
  1  'x, y, z'
loop_
 _atom_site_type_symbol
 _atom_site_label
 _atom_site_symmetry_multiplicity
 _atom_site_fract_x
 _atom_site_fract_y
 _atom_site_fract_z
 _atom_site_occupancy
  Li  Li0  1  0.942606  0.341173  0.069425  1
  Li  Li1  1  0.658827  0.057394  0.569425  1
  Li  Li2  1  0.475749  0.141905  0.048470  1
  Li  Li3  1  0.858095  0.524251  0.548470  1
  Li  Li4  1  0.992040  0.714098  0.277688  1
  Li  Li5  1  0.285902  0.007960  0.777688  1
  Li  Li6  1  0.670893  0.620008  0.032957  1
  Li  Li7  1  0.379992  0.329107  0.532957  1
  Li  Li8  1  0.197725  0.197725  0.250000  1
  Li  Li9  1  0.802275  0.802275  0.750000  1
  Li  Li10  1  0.620008  0.670893  0.467043  1
  Li  Li11  1  0.329107  0.379992  0.967043  1
  Li  Li12  1  0.714098  0.992040  0.222312  1
  Li  Li13  1  0.007960  0.285902  0.722312  1
  Li  Li14  1  0.141905  0.475749  0.451530  1
  Li  Li15  1  0.524251  0.858095  0.951530  1
  Li  Li16  1  0.341173  0.942606  0.430575  1
  Li  Li17  1  0.057394  0.658827  0.930575  1
  Mn  Mn18  1  0.663351  0.333461  0.296906  1
  Mn  Mn19  1  0.666539  0.336649  0.796906  1
  Mn  Mn20  1  0.000000  0.000000  0.500000  1
  Mn  Mn21  1  0.000000  0.000000  0.000000  1
  Mn  Mn22  1  0.333461  0.663351  0.203094  1
  Mn  Mn23  1  0.336649  0.666539  0.703094  1
  F  F24  1  0.933715  0.074671  0.336324  1
  F  F25  1  0.925329  0.066285  0.836324  1
  F  F26  1  0.732155  0.217222  0.154301  1
  F  F27  1  0.586095  0.106388  0.392358  1
  F  F28  1  0.782778  0.267845  0.654301  1
  F  F29  1  0.891251  0.425772  0.388934  1
  F  F30  1  0.893612  0.413905  0.892358  1
  F  F31  1  0.574228  0.108749  0.888934  1
  F  F32  1  0.758817  0.555718  0.197286  1
  F  F33  1  0.440042  0.246583  0.199275  1
  F  F34  1  0.444282  0.241183  0.697286  1
  F  F35  1  0.753417  0.559958  0.699275  1
  F  F36  1  0.599670  0.438398  0.445178  1
  F  F37  1  0.914279  0.763312  0.439781  1
  F  F38  1  0.252901  0.106682  0.429890  1
  F  F39  1  0.561602  0.400330  0.945178  1
  F  F40  1  0.236688  0.085721  0.939780  1
  F  F41  1  0.893318  0.747099  0.929890  1
  F  F42  1  0.106682  0.252901  0.070110  1
  F  F43  1  0.763312  0.914279  0.060219  1
  F  F44  1  0.438398  0.599670  0.054822  1
  F  F45  1  0.747099  0.893318  0.570110  1
  F  F46  1  0.085721  0.236688  0.560219  1
  F  F47  1  0.400330  0.561602  0.554822  1
  F  F48  1  0.246583  0.440042  0.300725  1
  F  F49  1  0.555718  0.758817  0.302714  1
  F  F50  1  0.559958  0.753417  0.800725  1
  F  F51  1  0.241183  0.444282  0.802714  1
  F  F52  1  0.425772  0.891251  0.111066  1
  F  F53  1  0.106388  0.586095  0.107642  1
  F  F54  1  0.108749  0.574228  0.611066  1
  F  F55  1  0.217222  0.732155  0.345699  1
  F  F56  1  0.413905  0.893612  0.607642  1
  F  F57  1  0.267845  0.782778  0.845699  1
  F  F58  1  0.074671  0.933715  0.163676  1
  F  F59  1  0.066285  0.925329  0.663676  1
