# generated using pymatgen
data_Ti3Mn2P6WO24
_symmetry_space_group_name_H-M   'P 1'
_cell_length_a   8.74011281
_cell_length_b   8.74011281
_cell_length_c   8.74011281
_cell_angle_alpha   59.91721738
_cell_angle_beta   59.91721738
_cell_angle_gamma   59.91721738
_symmetry_Int_Tables_number   1
_chemical_formula_structural   Ti3Mn2P6WO24
_chemical_formula_sum   'Ti3 Mn2 P6 W1 O24'
_cell_volume   471.21575588
_cell_formula_units_Z   1
loop_
 _symmetry_equiv_pos_site_id
 _symmetry_equiv_pos_as_xyz
  1  'x, y, z'
loop_
 _atom_site_type_symbol
 _atom_site_label
 _atom_site_symmetry_multiplicity
 _atom_site_fract_x
 _atom_site_fract_y
 _atom_site_fract_z
 _atom_site_occupancy
  Ti  Ti0  1  0.646068  0.646068  0.646068  1
  Ti  Ti1  1  0.854766  0.854766  0.854766  1
  Ti  Ti2  1  0.353623  0.353623  0.353623  1
  Mn  Mn3  1  0.997672  0.997672  0.997672  1
  Mn  Mn4  1  0.501039  0.501039  0.501039  1
  P  P5  1  0.251682  0.547883  0.953923  1
  P  P6  1  0.953923  0.251682  0.547883  1
  P  P7  1  0.547883  0.953923  0.251682  1
  P  P8  1  0.460927  0.042988  0.744026  1
  P  P9  1  0.042988  0.744026  0.460927  1
  P  P10  1  0.744026  0.460927  0.042988  1
  W  W11  1  0.141788  0.141788  0.141788  1
  O  O12  1  0.118439  0.309633  0.500573  1
  O  O13  1  0.500573  0.118439  0.309633  1
  O  O14  1  0.309633  0.500573  0.118439  1
  O  O15  1  0.088540  0.739118  0.940109  1
  O  O16  1  0.194933  0.395437  0.982448  1
  O  O17  1  0.416439  0.568156  0.763132  1
  O  O18  1  0.940109  0.088540  0.739118  1
  O  O19  1  0.763132  0.416439  0.568156  1
  O  O20  1  0.617996  0.001204  0.807949  1
  O  O21  1  0.568156  0.763132  0.416439  1
  O  O22  1  0.267610  0.053666  0.901263  1
  O  O23  1  0.001204  0.807949  0.617996  1
  O  O24  1  0.982448  0.194933  0.395437  1
  O  O25  1  0.739118  0.940109  0.088540  1
  O  O26  1  0.446447  0.235026  0.581849  1
  O  O27  1  0.395437  0.982448  0.194933  1
  O  O28  1  0.235026  0.581849  0.446447  1
  O  O29  1  0.053666  0.901263  0.267610  1
  O  O30  1  0.581849  0.446447  0.235026  1
  O  O31  1  0.807949  0.617996  0.001204  1
  O  O32  1  0.901263  0.267610  0.053666  1
  O  O33  1  0.682137  0.508576  0.882909  1
  O  O34  1  0.508576  0.882909  0.682137  1
  O  O35  1  0.882909  0.682137  0.508576  1
