# generated using pymatgen
data_Li3Fe2(PO4)3
_symmetry_space_group_name_H-M   'P 1'
_cell_length_a   9.78202873
_cell_length_b   9.78202873
_cell_length_c   9.78082679
_cell_angle_alpha   86.55111199
_cell_angle_beta   93.44888801
_cell_angle_gamma   93.54779842
_symmetry_Int_Tables_number   1
_chemical_formula_structural   Li3Fe2(PO4)3
_chemical_formula_sum   'Li12 Fe8 P12 O48'
_cell_volume   930.92594624
_cell_formula_units_Z   4
loop_
 _symmetry_equiv_pos_site_id
 _symmetry_equiv_pos_as_xyz
  1  'x, y, z'
loop_
 _atom_site_type_symbol
 _atom_site_label
 _atom_site_symmetry_multiplicity
 _atom_site_fract_x
 _atom_site_fract_y
 _atom_site_fract_z
 _atom_site_occupancy
  Li  Li0  1  0.729333  0.460054  0.100651  1
  Li  Li1  1  0.984161  0.675847  0.970708  1
  Li  Li2  1  0.460054  0.729333  0.899349  1
  Li  Li3  1  0.675847  0.984161  0.029292  1
  Li  Li4  1  0.467990  0.984683  0.756833  1
  Li  Li5  1  0.984683  0.467990  0.243167  1
  Li  Li6  1  0.768336  0.157260  0.767166  1
  Li  Li7  1  0.157260  0.768336  0.232834  1
  Li  Li8  1  0.337545  0.000462  0.492576  1
  Li  Li9  1  0.500046  0.254775  0.597062  1
  Li  Li10  1  0.000462  0.337545  0.507424  1
  Li  Li11  1  0.254775  0.500046  0.402938  1
  Fe  Fe12  1  0.750121  0.528169  0.721058  1
  Fe  Fe13  1  0.479062  0.244842  0.223496  1
  Fe  Fe14  1  0.029662  0.029662  0.000000  1
  Fe  Fe15  1  0.252275  0.252275  0.000000  1
  Fe  Fe16  1  0.750800  0.750800  0.500000  1
  Fe  Fe17  1  0.528169  0.750121  0.278942  1
  Fe  Fe18  1  0.973255  0.973255  0.500000  1
  Fe  Fe19  1  0.244842  0.479062  0.776504  1
  P  P20  1  0.327546  0.549908  0.099037  1
  P  P21  1  0.848074  0.826678  0.198173  1
  P  P22  1  0.348483  0.950419  0.077595  1
  P  P23  1  0.826678  0.848074  0.801827  1
  P  P24  1  0.450394  0.679039  0.597051  1
  P  P25  1  0.049050  0.653343  0.573125  1
  P  P26  1  0.950419  0.348483  0.922405  1
  P  P27  1  0.549908  0.327546  0.900963  1
  P  P28  1  0.179821  0.160277  0.699413  1
  P  P29  1  0.653343  0.049050  0.426875  1
  P  P30  1  0.160277  0.179821  0.300587  1
  P  P31  1  0.679039  0.450394  0.402949  1
  O  O32  1  0.211304  0.594648  0.181134  1
  O  O33  1  0.470003  0.617648  0.143052  1
  O  O34  1  0.933183  0.712474  0.153834  1
  O  O35  1  0.690600  0.810054  0.161752  1
  O  O36  1  0.310856  0.587324  0.941879  1
  O  O37  1  0.390527  0.882601  0.220970  1
  O  O38  1  0.890535  0.968876  0.128278  1
  O  O39  1  0.810054  0.690600  0.838248  1
  O  O40  1  0.190759  0.914873  0.062777  1
  O  O41  1  0.381733  0.538481  0.646687  1
  O  O42  1  0.110087  0.608172  0.717680  1
  O  O43  1  0.433437  0.905192  0.963779  1
  O  O44  1  0.968876  0.890535  0.871722  1
  O  O45  1  0.125039  0.173197  0.140624  1
  O  O46  1  0.379152  0.110895  0.080868  1
  O  O47  1  0.887323  0.622797  0.580241  1
  O  O48  1  0.611362  0.667017  0.626350  1
  O  O49  1  0.712474  0.933183  0.846166  1
  O  O50  1  0.412267  0.799856  0.675614  1
  O  O51  1  0.091397  0.565234  0.460522  1
  O  O52  1  0.834819  0.875858  0.642104  1
  O  O53  1  0.667017  0.611362  0.373650  1
  O  O54  1  0.914873  0.190759  0.937223  1
  O  O55  1  0.587324  0.310856  0.058121  1
  O  O56  1  0.411782  0.689611  0.439673  1
  O  O57  1  0.084130  0.808246  0.544915  1
  O  O58  1  0.333971  0.389946  0.128535  1
  O  O59  1  0.173197  0.125039  0.859376  1
  O  O60  1  0.905192  0.433437  0.036221  1
  O  O61  1  0.594648  0.211304  0.818866  1
  O  O62  1  0.307717  0.098685  0.651758  1
  O  O63  1  0.110895  0.379152  0.919132  1
  O  O64  1  0.389946  0.333971  0.871465  1
  O  O65  1  0.622797  0.887323  0.419759  1
  O  O66  1  0.875858  0.834819  0.357896  1
  O  O67  1  0.040683  0.106245  0.632229  1
  O  O68  1  0.565234  0.091397  0.539478  1
  O  O69  1  0.617648  0.470003  0.856948  1
  O  O70  1  0.882601  0.390527  0.779030  1
  O  O71  1  0.808246  0.084130  0.455085  1
  O  O72  1  0.182666  0.318295  0.664592  1
  O  O73  1  0.106245  0.040683  0.367771  1
  O  O74  1  0.608172  0.110087  0.282320  1
  O  O75  1  0.689611  0.411782  0.560327  1
  O  O76  1  0.318295  0.182666  0.335408  1
  O  O77  1  0.098685  0.307717  0.348242  1
  O  O78  1  0.538481  0.381733  0.353313  1
  O  O79  1  0.799856  0.412267  0.324386  1
