# generated using pymatgen
data_KV6O14
_symmetry_space_group_name_H-M   'P 1'
_cell_length_a   7.24884863
_cell_length_b   8.75436440
_cell_length_c   10.55717454
_cell_angle_alpha   103.90286161
_cell_angle_beta   90.17394588
_cell_angle_gamma   101.80010224
_symmetry_Int_Tables_number   1
_chemical_formula_structural   KV6O14
_chemical_formula_sum   'K2 V12 O28'
_cell_volume   635.61838529
_cell_formula_units_Z   2
loop_
 _symmetry_equiv_pos_site_id
 _symmetry_equiv_pos_as_xyz
  1  'x, y, z'
loop_
 _atom_site_type_symbol
 _atom_site_label
 _atom_site_symmetry_multiplicity
 _atom_site_fract_x
 _atom_site_fract_y
 _atom_site_fract_z
 _atom_site_occupancy
  K  K0  1  0.747649  0.999436  0.593688  1
  K  K1  1  0.252351  0.000564  0.406312  1
  V  V2  1  0.083297  0.325273  0.897736  1
  V  V3  1  0.577414  0.317136  0.896574  1
  V  V4  1  0.176056  0.702801  0.864528  1
  V  V5  1  0.672386  0.686110  0.861869  1
  V  V6  1  0.606098  0.418814  0.580766  1
  V  V7  1  0.106866  0.429262  0.589584  1
  V  V8  1  0.393902  0.581186  0.419234  1
  V  V9  1  0.893134  0.570738  0.410416  1
  V  V10  1  0.327614  0.313890  0.138131  1
  V  V11  1  0.823944  0.297199  0.135472  1
  V  V12  1  0.422586  0.682864  0.103426  1
  V  V13  1  0.916703  0.674727  0.102264  1
  O  O14  1  0.849486  0.366615  0.950978  1
  O  O15  1  0.337775  0.380601  0.947857  1
  O  O16  1  0.537226  0.144182  0.790441  1
  O  O17  1  0.040446  0.151688  0.793049  1
  O  O18  1  0.923227  0.736821  0.930856  1
  O  O19  1  0.445170  0.732972  0.928131  1
  O  O20  1  0.115086  0.469088  0.774414  1
  O  O21  1  0.621033  0.476653  0.777825  1
  O  O22  1  0.696996  0.779154  0.743865  1
  O  O23  1  0.193924  0.787096  0.742201  1
  O  O24  1  0.558068  0.221876  0.536188  1
  O  O25  1  0.057369  0.233247  0.542857  1
  O  O26  1  0.880163  0.498497  0.578069  1
  O  O27  1  0.367407  0.494396  0.577755  1
  O  O28  1  0.119837  0.501503  0.421931  1
  O  O29  1  0.632593  0.505604  0.422245  1
  O  O30  1  0.441932  0.778124  0.463812  1
  O  O31  1  0.942631  0.766753  0.457143  1
  O  O32  1  0.303004  0.220846  0.256135  1
  O  O33  1  0.806076  0.212904  0.257799  1
  O  O34  1  0.378967  0.523347  0.222175  1
  O  O35  1  0.884914  0.530912  0.225586  1
  O  O36  1  0.554830  0.267028  0.071869  1
  O  O37  1  0.076773  0.263179  0.069144  1
  O  O38  1  0.959554  0.848312  0.206951  1
  O  O39  1  0.462774  0.855818  0.209559  1
  O  O40  1  0.662225  0.619399  0.052143  1
  O  O41  1  0.150514  0.633385  0.049022  1
