# generated using pymatgen
data_Li6MnFe5(BO3)6
_symmetry_space_group_name_H-M   'P 1'
_cell_length_a   8.24169302
_cell_length_b   3.13699281
_cell_length_c   14.29532031
_cell_angle_alpha   90.00000000
_cell_angle_beta   90.06228949
_cell_angle_gamma   90.00000000
_symmetry_Int_Tables_number   1
_chemical_formula_structural   Li6MnFe5(BO3)6
_chemical_formula_sum   'Li6 Mn1 Fe5 B6 O18'
_cell_volume   369.59287641
_cell_formula_units_Z   1
loop_
 _symmetry_equiv_pos_site_id
 _symmetry_equiv_pos_as_xyz
  1  'x, y, z'
loop_
 _atom_site_type_symbol
 _atom_site_label
 _atom_site_symmetry_multiplicity
 _atom_site_fract_x
 _atom_site_fract_y
 _atom_site_fract_z
 _atom_site_occupancy
  Li  Li0  1  0.706289  0.500000  0.007579  1
  Li  Li1  1  0.660008  0.500000  0.641945  1
  Li  Li2  1  0.635128  0.500000  0.350164  1
  Li  Li3  1  0.206635  0.500000  0.507967  1
  Li  Li4  1  0.156917  0.500000  0.143764  1
  Li  Li5  1  0.132879  0.500000  0.848517  1
  Mn  Mn6  1  0.366529  0.000000  0.994242  1
  Fe  Fe7  1  0.864422  0.000000  0.495842  1
  Fe  Fe8  1  0.823426  0.000000  0.183758  1
  Fe  Fe9  1  0.813298  0.000000  0.820063  1
  Fe  Fe10  1  0.323794  0.000000  0.683643  1
  Fe  Fe11  1  0.312355  0.000000  0.320216  1
  B  B12  1  0.999756  0.500000  0.333445  1
  B  B13  1  0.998870  0.000000  0.001033  1
  B  B14  1  0.000122  0.500000  0.666579  1
  B  B15  1  0.500951  0.500000  0.831350  1
  B  B16  1  0.500147  0.000000  0.500256  1
  B  B17  1  0.500810  0.500000  0.167870  1
  O  O18  1  0.988899  0.500000  0.569512  1
  O  O19  1  0.981123  0.500000  0.236807  1
  O  O20  1  0.863801  0.500000  0.391285  1
  O  O21  1  0.860480  0.500000  0.720663  1
  O  O22  1  0.845583  0.000000  0.042238  1
  O  O23  1  0.654105  0.500000  0.872031  1
  O  O24  1  0.651246  0.500000  0.211559  1
  O  O25  1  0.640238  0.000000  0.554495  1
  O  O26  1  0.511992  0.000000  0.403201  1
  O  O27  1  0.491324  0.500000  0.071149  1
  O  O28  1  0.483316  0.500000  0.734587  1
  O  O29  1  0.362686  0.500000  0.887887  1
  O  O30  1  0.359589  0.500000  0.221132  1
  O  O31  1  0.348566  0.000000  0.542648  1
  O  O32  1  0.154685  0.500000  0.372822  1
  O  O33  1  0.151261  0.500000  0.709350  1
  O  O34  1  0.136528  0.000000  0.056663  1
  O  O35  1  0.012243  0.000000  0.903739  1
