# generated using pymatgen
data_LiTiSiO4
_symmetry_space_group_name_H-M   'P 1'
_cell_length_a   5.72528770
_cell_length_b   5.72528770
_cell_length_c   5.72528770
_cell_angle_alpha   120.53056694
_cell_angle_beta   119.12252354
_cell_angle_gamma   90.30499857
_symmetry_Int_Tables_number   1
_chemical_formula_structural   LiTiSiO4
_chemical_formula_sum   'Li2 Ti2 Si2 O8'
_cell_volume   133.02276591
_cell_formula_units_Z   2
loop_
 _symmetry_equiv_pos_site_id
 _symmetry_equiv_pos_as_xyz
  1  'x, y, z'
loop_
 _atom_site_type_symbol
 _atom_site_label
 _atom_site_symmetry_multiplicity
 _atom_site_fract_x
 _atom_site_fract_y
 _atom_site_fract_z
 _atom_site_occupancy
  Li  Li0  1  0.000000  0.500000  0.500000  1
  Li  Li1  1  0.500000  0.500000  0.000000  1
  Ti  Ti2  1  0.000000  0.000000  0.500000  1
  Ti  Ti3  1  1.000000  0.500000  1.000000  1
  Si  Si4  1  0.633815  0.883815  0.750000  1
  Si  Si5  1  0.366185  0.116185  0.250000  1
  O  O6  1  0.246557  0.759922  0.013365  1
  O  O7  1  0.246557  0.233191  0.486635  1
  O  O8  1  0.253339  0.237661  0.015677  1
  O  O9  1  0.721984  0.237661  0.484323  1
  O  O10  1  0.746661  0.762339  0.984323  1
  O  O11  1  0.278016  0.762339  0.515677  1
  O  O12  1  0.753443  0.766809  0.513365  1
  O  O13  1  0.753443  0.240078  0.986635  1
