# generated using pymatgen
data_Li5Mn5O12
_symmetry_space_group_name_H-M   'P 1'
_cell_length_a   5.03860736
_cell_length_b   5.10477879
_cell_length_c   10.37023465
_cell_angle_alpha   85.63814500
_cell_angle_beta   82.37092652
_cell_angle_gamma   61.20450485
_symmetry_Int_Tables_number   1
_chemical_formula_structural   Li5Mn5O12
_chemical_formula_sum   'Li5 Mn5 O12'
_cell_volume   231.65803479
_cell_formula_units_Z   1
loop_
 _symmetry_equiv_pos_site_id
 _symmetry_equiv_pos_as_xyz
  1  'x, y, z'
loop_
 _atom_site_type_symbol
 _atom_site_label
 _atom_site_symmetry_multiplicity
 _atom_site_fract_x
 _atom_site_fract_y
 _atom_site_fract_z
 _atom_site_occupancy
  Li  Li0  1  0.041322  0.322098  0.793363  1
  Li  Li1  1  0.637168  0.310559  0.208897  1
  Li  Li2  1  0.000000  0.000000  0.000000  1
  Li  Li3  1  0.362832  0.689441  0.791103  1
  Li  Li4  1  0.958678  0.677902  0.206637  1
  Mn  Mn5  1  0.836062  0.332610  0.500207  1
  Mn  Mn6  1  0.336953  0.324893  0.000119  1
  Mn  Mn7  1  0.663047  0.675107  0.999881  1
  Mn  Mn8  1  0.163938  0.667390  0.499793  1
  Mn  Mn9  1  0.500000  0.000000  0.500000  1
  O  O10  1  0.962213  0.368851  0.104161  1
  O  O11  1  0.662686  0.375603  0.895203  1
  O  O12  1  0.890080  0.639805  0.396876  1
  O  O13  1  0.525000  0.343063  0.403102  1
  O  O14  1  0.475000  0.656937  0.596898  1
  O  O15  1  0.815447  0.994704  0.593129  1
  O  O16  1  0.109920  0.360195  0.603124  1
  O  O17  1  0.337314  0.624397  0.104797  1
  O  O18  1  0.630648  0.997411  0.102274  1
  O  O19  1  0.037787  0.631149  0.895839  1
  O  O20  1  0.369352  0.002589  0.897726  1
  O  O21  1  0.184553  0.005296  0.406871  1
