# generated using pymatgen
data_V3OF11
_symmetry_space_group_name_H-M   'P 1'
_cell_length_a   5.27625751
_cell_length_b   5.45735718
_cell_length_c   14.79589256
_cell_angle_alpha   100.28379653
_cell_angle_beta   90.04672814
_cell_angle_gamma   90.01941589
_symmetry_Int_Tables_number   1
_chemical_formula_structural   V3OF11
_chemical_formula_sum   'V6 O2 F22'
_cell_volume   419.19490227
_cell_formula_units_Z   2
loop_
 _symmetry_equiv_pos_site_id
 _symmetry_equiv_pos_as_xyz
  1  'x, y, z'
loop_
 _atom_site_type_symbol
 _atom_site_label
 _atom_site_symmetry_multiplicity
 _atom_site_fract_x
 _atom_site_fract_y
 _atom_site_fract_z
 _atom_site_occupancy
  V  V0  1  0.000008  0.000019  0.000047  1
  V  V1  1  0.490254  0.155202  0.334644  1
  V  V2  1  0.990968  0.333284  0.672853  1
  V  V3  1  0.499876  0.500027  0.000064  1
  V  V4  1  0.974969  0.625983  0.330324  1
  V  V5  1  0.495568  0.831474  0.665744  1
  O  O6  1  0.918500  0.378147  0.781352  1
  O  O7  1  0.795760  0.375385  0.311075  1
  F  F8  1  0.796620  0.031283  0.640714  1
  F  F9  1  0.698403  0.189848  0.975413  1
  F  F10  1  0.293174  0.137252  0.690762  1
  F  F11  1  0.914357  0.041858  0.117114  1
  F  F12  1  0.587251  0.214518  0.450283  1
  F  F13  1  0.423849  0.128650  0.216498  1
  F  F14  1  0.090707  0.295518  0.551545  1
  F  F15  1  0.414942  0.458174  0.883111  1
  F  F16  1  0.707282  0.528053  0.640836  1
  F  F17  1  0.801342  0.690426  0.975415  1
  F  F18  1  0.198549  0.310375  0.024784  1
  F  F19  1  0.287443  0.470194  0.357350  1
  F  F20  1  0.202794  0.637612  0.691584  1
  F  F21  1  0.587020  0.541944  0.117079  1
  F  F22  1  0.926392  0.726684  0.449930  1
  F  F23  1  0.587848  0.876238  0.781629  1
  F  F24  1  0.092058  0.634221  0.218244  1
  F  F25  1  0.419249  0.789734  0.548490  1
  F  F26  1  0.085777  0.959116  0.883258  1
  F  F27  1  0.709456  0.858046  0.308787  1
  F  F28  1  0.301649  0.810078  0.024488  1
  F  F29  1  0.207938  0.970659  0.356586  1
