# generated using pymatgen
data_LiLa5Ti8O24
_symmetry_space_group_name_H-M   'P 1'
_cell_length_a   8.70633222
_cell_length_b   8.70633222
_cell_length_c   8.76476477
_cell_angle_alpha   66.62453268
_cell_angle_beta   113.37546732
_cell_angle_gamma   126.82435765
_symmetry_Int_Tables_number   1
_chemical_formula_structural   LiLa5Ti8O24
_chemical_formula_sum   'Li1 La5 Ti8 O24'
_cell_volume   476.60514718
_cell_formula_units_Z   1
loop_
 _symmetry_equiv_pos_site_id
 _symmetry_equiv_pos_as_xyz
  1  'x, y, z'
loop_
 _atom_site_type_symbol
 _atom_site_label
 _atom_site_symmetry_multiplicity
 _atom_site_fract_x
 _atom_site_fract_y
 _atom_site_fract_z
 _atom_site_occupancy
  Li  Li0  1  0.507550  0.492450  0.999616  1
  La  La1  1  0.377140  0.622860  0.498688  1
  La  La2  1  0.124538  0.875462  0.501933  1
  La  La3  1  0.872128  0.127872  0.497845  1
  La  La4  1  0.751214  0.248786  0.999794  1
  La  La5  1  0.626477  0.373523  0.501480  1
  Ti  Ti6  1  0.563399  0.930168  0.760111  1
  Ti  Ti7  1  0.683945  0.810356  0.239782  1
  Ti  Ti8  1  0.189644  0.316055  0.239782  1
  Ti  Ti9  1  0.938765  0.571106  0.240380  1
  Ti  Ti10  1  0.818482  0.691352  0.759782  1
  Ti  Ti11  1  0.069832  0.436601  0.760111  1
  Ti  Ti12  1  0.428894  0.061235  0.240380  1
  Ti  Ti13  1  0.308648  0.181518  0.759782  1
  O  O14  1  0.675636  0.810060  0.731778  1
  O  O15  1  0.630443  0.892171  0.000012  1
  O  O16  1  0.576045  0.944877  0.264374  1
  O  O17  1  0.305873  0.694127  0.725039  1
  O  O18  1  0.057204  0.942796  0.726777  1
  O  O19  1  0.195571  0.804429  0.277230  1
  O  O20  1  0.442603  0.557397  0.267534  1
  O  O21  1  0.924824  0.558158  0.735438  1
  O  O22  1  0.847625  0.591576  0.999963  1
  O  O23  1  0.189940  0.324364  0.731778  1
  O  O24  1  0.815209  0.680775  0.268915  1
  O  O25  1  0.055123  0.423955  0.264374  1
  O  O26  1  0.107829  0.369557  0.000012  1
  O  O27  1  0.993468  0.493825  0.500299  1
  O  O28  1  0.748137  0.749223  0.499748  1
  O  O29  1  0.937288  0.062712  0.267402  1
  O  O30  1  0.561549  0.438451  0.732349  1
  O  O31  1  0.804783  0.195217  0.738438  1
  O  O32  1  0.693733  0.306267  0.264711  1
  O  O33  1  0.506175  0.006532  0.500299  1
  O  O34  1  0.441842  0.075176  0.735438  1
  O  O35  1  0.250777  0.251863  0.499748  1
  O  O36  1  0.408424  0.152375  0.999963  1
  O  O37  1  0.319225  0.184791  0.268915  1
