# generated using pymatgen
data_Li11Nb4(Ni3O8)3
_symmetry_space_group_name_H-M   'P 1'
_cell_length_a   5.26148259
_cell_length_b   9.33730714
_cell_length_c   9.86583059
_cell_angle_alpha   73.44165723
_cell_angle_beta   81.85287854
_cell_angle_gamma   79.74647490
_symmetry_Int_Tables_number   1
_chemical_formula_structural   Li11Nb4(Ni3O8)3
_chemical_formula_sum   'Li11 Nb4 Ni9 O24'
_cell_volume   455.03768252
_cell_formula_units_Z   1
loop_
 _symmetry_equiv_pos_site_id
 _symmetry_equiv_pos_as_xyz
  1  'x, y, z'
loop_
 _atom_site_type_symbol
 _atom_site_label
 _atom_site_symmetry_multiplicity
 _atom_site_fract_x
 _atom_site_fract_y
 _atom_site_fract_z
 _atom_site_occupancy
  Li  Li0  1  0.728256  0.586325  0.978518  1
  Li  Li1  1  0.934563  0.755367  0.687803  1
  Li  Li2  1  0.556995  0.250333  0.814241  1
  Li  Li3  1  0.393912  0.917032  0.646287  1
  Li  Li4  1  0.857333  0.072909  0.607145  1
  Li  Li5  1  0.228841  0.585797  0.478472  1
  Li  Li6  1  0.897985  0.915104  0.145752  1
  Li  Li7  1  0.437810  0.755478  0.184636  1
  Li  Li8  1  0.067960  0.249732  0.310782  1
  Li  Li9  1  0.356475  0.073699  0.106219  1
  Li  Li10  1  0.272693  0.409400  0.022739  1
  Nb  Nb11  1  0.188784  0.745663  0.938389  1
  Nb  Nb12  1  0.688955  0.744392  0.439522  1
  Nb  Nb13  1  0.313816  0.253934  0.561332  1
  Nb  Nb14  1  0.812816  0.248824  0.062779  1
  Ni  Ni15  1  0.644018  0.923927  0.893866  1
  Ni  Ni16  1  0.476866  0.577947  0.732555  1
  Ni  Ni17  1  0.013162  0.423843  0.773723  1
  Ni  Ni18  1  0.771213  0.410401  0.521394  1
  Ni  Ni19  1  0.104255  0.083527  0.854711  1
  Ni  Ni20  1  0.144188  0.922691  0.394466  1
  Ni  Ni21  1  0.983989  0.577640  0.229146  1
  Ni  Ni22  1  0.524650  0.423756  0.264039  1
  Ni  Ni23  1  0.603394  0.082648  0.353450  1
  O  O24  1  0.736276  0.088913  0.979863  1
  O  O25  1  0.653893  0.412393  0.899389  1
  O  O26  1  0.536559  0.750709  0.820296  1
  O  O27  1  0.014346  0.911652  0.781726  1
  O  O28  1  0.114623  0.589131  0.852508  1
  O  O29  1  0.961941  0.248639  0.683581  1
  O  O30  1  0.160743  0.250595  0.944878  1
  O  O31  1  0.837413  0.589583  0.608818  1
  O  O32  1  0.782340  0.909978  0.511326  1
  O  O33  1  0.339335  0.748448  0.554562  1
  O  O34  1  0.361084  0.415326  0.653500  1
  O  O35  1  0.468624  0.091502  0.724592  1
  O  O36  1  0.511899  0.909667  0.283778  1
  O  O37  1  0.617776  0.588990  0.346969  1
  O  O38  1  0.664374  0.247486  0.441045  1
  O  O39  1  0.179985  0.414966  0.389713  1
  O  O40  1  0.236669  0.091152  0.479849  1
  O  O41  1  0.839488  0.750398  0.054060  1
  O  O42  1  0.035959  0.748588  0.321720  1
  O  O43  1  0.968490  0.088548  0.225652  1
  O  O44  1  0.889494  0.412063  0.144695  1
  O  O45  1  0.463834  0.250381  0.180139  1
  O  O46  1  0.340948  0.589040  0.103078  1
  O  O47  1  0.280979  0.911481  0.012291  1
