# generated using pymatgen
data_MgSO3
_symmetry_space_group_name_H-M   'P 1'
_cell_length_a   5.34505162
_cell_length_b   11.99189967
_cell_length_c   8.09343524
_cell_angle_alpha   90.00000000
_cell_angle_beta   99.88786971
_cell_angle_gamma   90.00000000
_symmetry_Int_Tables_number   1
_chemical_formula_structural   MgSO3
_chemical_formula_sum   'Mg8 S8 O24'
_cell_volume   511.06160440
_cell_formula_units_Z   8
loop_
 _symmetry_equiv_pos_site_id
 _symmetry_equiv_pos_as_xyz
  1  'x, y, z'
loop_
 _atom_site_type_symbol
 _atom_site_label
 _atom_site_symmetry_multiplicity
 _atom_site_fract_x
 _atom_site_fract_y
 _atom_site_fract_z
 _atom_site_occupancy
  Mg  Mg0  1  0.331336  0.421280  0.118078  1
  Mg  Mg1  1  0.120519  0.756236  0.153797  1
  Mg  Mg2  1  0.879481  0.256236  0.346203  1
  Mg  Mg3  1  0.668664  0.921280  0.381922  1
  Mg  Mg4  1  0.331336  0.078720  0.618078  1
  Mg  Mg5  1  0.120519  0.743764  0.653797  1
  Mg  Mg6  1  0.879481  0.243764  0.846203  1
  Mg  Mg7  1  0.668664  0.578720  0.881922  1
  S  S8  1  0.475385  0.173880  0.015520  1
  S  S9  1  0.911661  0.521415  0.257157  1
  S  S10  1  0.088339  0.021415  0.242843  1
  S  S11  1  0.524615  0.673880  0.484480  1
  S  S12  1  0.475385  0.326120  0.515520  1
  S  S13  1  0.911661  0.978585  0.757157  1
  S  S14  1  0.088339  0.478585  0.742843  1
  S  S15  1  0.524615  0.826120  0.984480  1
  O  O16  1  0.255941  0.261447  0.001432  1
  O  O17  1  0.721017  0.242187  0.081378  1
  O  O18  1  0.661813  0.517654  0.128151  1
  O  O19  1  0.474879  0.843935  0.166336  1
  O  O20  1  0.973444  0.902147  0.239568  1
  O  O21  1  0.097714  0.581729  0.157157  1
  O  O22  1  0.902286  0.081729  0.342843  1
  O  O23  1  0.026556  0.402147  0.260432  1
  O  O24  1  0.525121  0.343935  0.333664  1
  O  O25  1  0.338187  0.017654  0.371849  1
  O  O26  1  0.278983  0.742187  0.418622  1
  O  O27  1  0.744059  0.761447  0.498568  1
  O  O28  1  0.255941  0.238553  0.501432  1
  O  O29  1  0.721017  0.257813  0.581378  1
  O  O30  1  0.661813  0.982346  0.628151  1
  O  O31  1  0.474879  0.656065  0.666336  1
  O  O32  1  0.973444  0.597853  0.739568  1
  O  O33  1  0.097714  0.918271  0.657157  1
  O  O34  1  0.902286  0.418271  0.842843  1
  O  O35  1  0.026556  0.097853  0.760432  1
  O  O36  1  0.525121  0.156065  0.833664  1
  O  O37  1  0.338187  0.482346  0.871849  1
  O  O38  1  0.278983  0.757813  0.918622  1
  O  O39  1  0.744059  0.738553  0.998568  1
