# generated using pymatgen
data_Na3CdPCO7
_symmetry_space_group_name_H-M   'P 1'
_cell_length_a   5.25516800
_cell_length_b   7.00416387
_cell_length_c   9.17599397
_cell_angle_alpha   90.00000000
_cell_angle_beta   90.16386086
_cell_angle_gamma   90.00000000
_symmetry_Int_Tables_number   1
_chemical_formula_structural   Na3CdPCO7
_chemical_formula_sum   'Na6 Cd2 P2 C2 O14'
_cell_volume   337.74913550
_cell_formula_units_Z   2
loop_
 _symmetry_equiv_pos_site_id
 _symmetry_equiv_pos_as_xyz
  1  'x, y, z'
loop_
 _atom_site_type_symbol
 _atom_site_label
 _atom_site_symmetry_multiplicity
 _atom_site_fract_x
 _atom_site_fract_y
 _atom_site_fract_z
 _atom_site_occupancy
  Na  Na0  1  0.759608  0.250000  0.083361  1
  Na  Na1  1  0.246399  0.002845  0.258907  1
  Na  Na2  1  0.246399  0.497155  0.258907  1
  Na  Na3  1  0.753601  0.502845  0.741093  1
  Na  Na4  1  0.753601  0.997155  0.741093  1
  Na  Na5  1  0.240392  0.750000  0.916639  1
  Cd  Cd6  1  0.769887  0.750000  0.364426  1
  Cd  Cd7  1  0.230113  0.250000  0.635574  1
  P  P8  1  0.702438  0.250000  0.407400  1
  P  P9  1  0.297562  0.750000  0.592600  1
  C  C10  1  0.735847  0.750000  0.056594  1
  C  C11  1  0.264153  0.250000  0.943406  1
  O  O12  1  0.287094  0.250000  0.084320  1
  O  O13  1  0.960173  0.750000  0.117246  1
  O  O14  1  0.532014  0.750000  0.138308  1
  O  O15  1  0.792191  0.073250  0.318100  1
  O  O16  1  0.792191  0.426750  0.318100  1
  O  O17  1  0.404433  0.250000  0.414294  1
  O  O18  1  0.196102  0.750000  0.433085  1
  O  O19  1  0.803898  0.250000  0.566915  1
  O  O20  1  0.595567  0.750000  0.585706  1
  O  O21  1  0.207809  0.573250  0.681900  1
  O  O22  1  0.207809  0.926750  0.681900  1
  O  O23  1  0.467986  0.250000  0.861692  1
  O  O24  1  0.039827  0.250000  0.882754  1
  O  O25  1  0.712906  0.750000  0.915680  1
