# generated using pymatgen
data_Na3Mn2P2(CO7)2
_symmetry_space_group_name_H-M   'P 1'
_cell_length_a   10.20965412
_cell_length_b   6.57297486
_cell_length_c   10.36602390
_cell_angle_alpha   90.00000000
_cell_angle_beta   119.06320772
_cell_angle_gamma   90.00000000
_symmetry_Int_Tables_number   1
_chemical_formula_structural   Na3Mn2P2(CO7)2
_chemical_formula_sum   'Na6 Mn4 P4 C4 O28'
_cell_volume   608.04895490
_cell_formula_units_Z   2
loop_
 _symmetry_equiv_pos_site_id
 _symmetry_equiv_pos_as_xyz
  1  'x, y, z'
loop_
 _atom_site_type_symbol
 _atom_site_label
 _atom_site_symmetry_multiplicity
 _atom_site_fract_x
 _atom_site_fract_y
 _atom_site_fract_z
 _atom_site_occupancy
  Na  Na0  1  0.758385  0.522308  0.759226  1
  Na  Na1  1  0.756593  0.990189  0.253045  1
  Na  Na2  1  0.757970  0.507134  0.255456  1
  Na  Na3  1  0.243407  0.490189  0.746955  1
  Na  Na4  1  0.242030  0.007134  0.744544  1
  Na  Na5  1  0.241615  0.022308  0.240774  1
  Mn  Mn6  1  0.655892  0.241895  0.931118  1
  Mn  Mn7  1  0.651358  0.245532  0.437983  1
  Mn  Mn8  1  0.348642  0.745532  0.562017  1
  Mn  Mn9  1  0.344108  0.741895  0.068882  1
  P  P10  1  0.575825  0.747476  0.934432  1
  P  P11  1  0.574268  0.748814  0.429070  1
  P  P12  1  0.425732  0.248814  0.570930  1
  P  P13  1  0.424175  0.247476  0.065568  1
  C  C14  1  0.927440  0.254104  0.097592  1
  C  C15  1  0.925063  0.251053  0.597071  1
  C  C16  1  0.074937  0.751053  0.402929  1
  C  C17  1  0.072560  0.754104  0.902408  1
  O  O18  1  0.935936  0.750149  0.326359  1
  O  O19  1  0.936459  0.754305  0.818868  1
  O  O20  1  0.860684  0.256484  0.952313  1
  O  O21  1  0.854262  0.245744  0.450605  1
  O  O22  1  0.825315  0.249479  0.143343  1
  O  O23  1  0.830789  0.257078  0.648502  1
  O  O24  1  0.673837  0.935110  0.955185  1
  O  O25  1  0.671464  0.559366  0.945692  1
  O  O26  1  0.671808  0.935011  0.440391  1
  O  O27  1  0.670047  0.560450  0.440154  1
  O  O28  1  0.537227  0.743019  0.558562  1
  O  O29  1  0.576505  0.255072  0.716638  1
  O  O30  1  0.538824  0.742046  0.065651  1
  O  O31  1  0.574444  0.250282  0.213044  1
  O  O32  1  0.425556  0.750282  0.786956  1
  O  O33  1  0.461176  0.242046  0.934349  1
  O  O34  1  0.423495  0.755072  0.283362  1
  O  O35  1  0.462773  0.243019  0.441438  1
  O  O36  1  0.328192  0.435011  0.559609  1
  O  O37  1  0.329953  0.060450  0.559846  1
  O  O38  1  0.326163  0.435110  0.044815  1
  O  O39  1  0.328536  0.059366  0.054308  1
  O  O40  1  0.169211  0.757078  0.351498  1
  O  O41  1  0.174685  0.749479  0.856657  1
  O  O42  1  0.145738  0.745744  0.549395  1
  O  O43  1  0.139316  0.756484  0.047687  1
  O  O44  1  0.063541  0.254305  0.181132  1
  O  O45  1  0.064064  0.250149  0.673641  1
