# generated using pymatgen
data_LiMn3F10
_symmetry_space_group_name_H-M   'P 1'
_cell_length_a   6.16727108
_cell_length_b   8.07584330
_cell_length_c   9.62387040
_cell_angle_alpha   110.20014057
_cell_angle_beta   108.62224725
_cell_angle_gamma   91.60914414
_symmetry_Int_Tables_number   1
_chemical_formula_structural   LiMn3F10
_chemical_formula_sum   'Li2 Mn6 F20'
_cell_volume   421.10237712
_cell_formula_units_Z   2
loop_
 _symmetry_equiv_pos_site_id
 _symmetry_equiv_pos_as_xyz
  1  'x, y, z'
loop_
 _atom_site_type_symbol
 _atom_site_label
 _atom_site_symmetry_multiplicity
 _atom_site_fract_x
 _atom_site_fract_y
 _atom_site_fract_z
 _atom_site_occupancy
  Li  Li0  1  0.691016  0.520966  0.381575  1
  Li  Li1  1  0.308984  0.479034  0.618425  1
  Mn  Mn2  1  0.919189  0.510605  0.835906  1
  Mn  Mn3  1  0.814410  0.986708  0.629856  1
  Mn  Mn4  1  0.252940  0.997584  0.999345  1
  Mn  Mn5  1  0.185590  0.013292  0.370144  1
  Mn  Mn6  1  0.080811  0.489395  0.164094  1
  Mn  Mn7  1  0.747060  0.002416  0.000655  1
  F  F8  1  0.344179  0.025417  0.212542  1
  F  F9  1  0.365581  0.472731  0.294609  1
  F  F10  1  0.997186  0.816840  0.953428  1
  F  F11  1  0.866936  0.234747  0.730259  1
  F  F12  1  0.501913  0.173649  0.045137  1
  F  F13  1  0.767078  0.742499  0.540913  1
  F  F14  1  0.926972  0.471725  0.295865  1
  F  F15  1  0.131488  0.979013  0.788589  1
  F  F16  1  0.198926  0.500825  0.000962  1
  F  F17  1  0.000000  0.000000  0.500000  1
  F  F18  1  0.868512  0.020987  0.211411  1
  F  F19  1  0.073028  0.528275  0.704135  1
  F  F20  1  0.232922  0.257501  0.459087  1
  F  F21  1  0.498087  0.826351  0.954863  1
  F  F22  1  0.133064  0.765253  0.269741  1
  F  F23  1  0.002814  0.183160  0.046572  1
  F  F24  1  0.634419  0.527269  0.705391  1
  F  F25  1  0.500000  0.000000  0.500000  1
  F  F26  1  0.801074  0.499175  0.999038  1
  F  F27  1  0.655821  0.974583  0.787458  1
