# generated using pymatgen
data_Li2Mn3OF6
_symmetry_space_group_name_H-M   'P 1'
_cell_length_a   5.16104862
_cell_length_b   10.83290554
_cell_length_c   12.10151225
_cell_angle_alpha   116.20895974
_cell_angle_beta   101.02515658
_cell_angle_gamma   90.05245702
_symmetry_Int_Tables_number   1
_chemical_formula_structural   Li2Mn3OF6
_chemical_formula_sum   'Li8 Mn12 O4 F24'
_cell_volume   593.01473270
_cell_formula_units_Z   4
loop_
 _symmetry_equiv_pos_site_id
 _symmetry_equiv_pos_as_xyz
  1  'x, y, z'
loop_
 _atom_site_type_symbol
 _atom_site_label
 _atom_site_symmetry_multiplicity
 _atom_site_fract_x
 _atom_site_fract_y
 _atom_site_fract_z
 _atom_site_occupancy
  Li  Li0  1  0.016038  0.249850  0.995803  1
  Li  Li1  1  0.173172  0.525164  0.209692  1
  Li  Li2  1  0.470662  0.815259  0.799465  1
  Li  Li3  1  0.176924  0.845569  0.494012  1
  Li  Li4  1  0.478841  0.748710  0.002923  1
  Li  Li5  1  0.540301  0.019423  0.208252  1
  Li  Li6  1  0.830006  0.297038  0.779748  1
  Li  Li7  1  0.797736  0.350946  0.500866  1
  Mn  Mn8  1  0.615494  0.327483  0.198475  1
  Mn  Mn9  1  0.323387  0.534805  0.520803  1
  Mn  Mn10  1  0.482812  0.476115  0.970798  1
  Mn  Mn11  1  0.828860  0.811493  0.652352  1
  Mn  Mn12  1  0.685532  0.687271  0.333803  1
  Mn  Mn13  1  0.055256  0.837026  0.219026  1
  Mn  Mn14  1  0.407637  0.115159  0.778549  1
  Mn  Mn15  1  0.725818  0.024085  0.499479  1
  Mn  Mn16  1  0.010228  0.985436  0.992868  1
  Mn  Mn17  1  0.175811  0.190665  0.346619  1
  Mn  Mn18  1  0.348189  0.307989  0.634938  1
  Mn  Mn19  1  0.883398  0.619589  0.788438  1
  O  O20  1  0.605058  0.669291  0.669486  1
  O  O21  1  0.905094  0.861542  0.370987  1
  O  O22  1  0.569115  0.153530  0.650057  1
  O  O23  1  0.433956  0.342998  0.491678  1
  F  F24  1  0.836913  0.176652  0.079096  1
  F  F25  1  0.306517  0.388812  0.076944  1
  F  F26  1  0.438679  0.518218  0.340382  1
  F  F27  1  0.820510  0.500700  0.203870  1
  F  F28  1  0.028936  0.677485  0.497488  1
  F  F29  1  0.316463  0.684339  0.213107  1
  F  F30  1  0.657862  0.969864  0.803155  1
  F  F31  1  0.537377  0.828981  0.502598  1
  F  F32  1  0.733646  0.667858  0.078457  1
  F  F33  1  0.207620  0.099549  0.920059  1
  F  F34  1  0.075583  0.967373  0.646054  1
  F  F35  1  0.270938  0.885310  0.084831  1
  F  F36  1  0.714450  0.304664  0.924305  1
  F  F37  1  0.404599  0.014004  0.342303  1
  F  F38  1  0.895845  0.016805  0.207078  1
  F  F39  1  0.198478  0.304475  0.803759  1
  F  F40  1  0.971483  0.188339  0.496995  1
  F  F41  1  0.372842  0.170520  0.196086  1
  F  F42  1  0.653017  0.463179  0.802143  1
  F  F43  1  0.215106  0.598733  0.918032  1
  F  F44  1  0.902242  0.344297  0.354940  1
  F  F45  1  0.064583  0.478008  0.641299  1
  F  F46  1  0.715766  0.819207  0.940458  1
  F  F47  1  0.121225  0.810396  0.817448  1
