# generated using pymatgen
data_Bi4(BO4)3
_symmetry_space_group_name_H-M   'P 1'
_cell_length_a   8.48531315
_cell_length_b   8.48531315
_cell_length_c   8.48531315
_cell_angle_alpha   109.47122063
_cell_angle_beta   109.47122063
_cell_angle_gamma   109.47122063
_symmetry_Int_Tables_number   1
_chemical_formula_structural   Bi4(BO4)3
_chemical_formula_sum   'Bi8 B6 O24'
_cell_volume   470.30731383
_cell_formula_units_Z   2
loop_
 _symmetry_equiv_pos_site_id
 _symmetry_equiv_pos_as_xyz
  1  'x, y, z'
loop_
 _atom_site_type_symbol
 _atom_site_label
 _atom_site_symmetry_multiplicity
 _atom_site_fract_x
 _atom_site_fract_y
 _atom_site_fract_z
 _atom_site_occupancy
  Bi  Bi0  1  0.851385  0.500000  1.000000  1
  Bi  Bi1  1  0.500000  1.000000  0.351385  1
  Bi  Bi2  1  0.148615  0.148615  0.148615  1
  Bi  Bi3  1  0.351385  0.500000  1.000000  1
  Bi  Bi4  1  0.500000  1.000000  0.851385  1
  Bi  Bi5  1  0.648615  0.648615  0.648615  1
  Bi  Bi6  1  1.000000  0.351385  0.500000  1
  Bi  Bi7  1  1.000000  0.851385  0.500000  1
  B  B8  1  0.625000  0.375000  0.250000  1
  B  B9  1  0.875000  0.125000  0.750000  1
  B  B10  1  0.750000  0.875000  0.125000  1
  B  B11  1  0.375000  0.250000  0.625000  1
  B  B12  1  0.250000  0.625000  0.375000  1
  B  B13  1  0.125000  0.750000  0.875000  1
  O  O14  1  0.918037  0.072800  0.257903  1
  O  O15  1  0.654763  0.339866  0.081963  1
  O  O16  1  0.839866  0.154763  0.581963  1
  O  O17  1  0.660134  0.242097  0.314897  1
  O  O18  1  0.814897  0.742097  0.160134  1
  O  O19  1  0.427200  0.345237  0.185103  1
  O  O20  1  0.742097  0.160134  0.814897  1
  O  O21  1  0.757903  0.572800  0.418037  1
  O  O22  1  0.345237  0.185103  0.427200  1
  O  O23  1  0.339866  0.081963  0.654763  1
  O  O24  1  0.581963  0.839866  0.154763  1
  O  O25  1  0.185103  0.427200  0.345237  1
  O  O26  1  0.314897  0.660134  0.242097  1
  O  O27  1  0.572800  0.418037  0.757903  1
  O  O28  1  0.927200  0.685103  0.845237  1
  O  O29  1  0.257903  0.918037  0.072800  1
  O  O30  1  0.242097  0.314897  0.660134  1
  O  O31  1  0.845237  0.927200  0.685103  1
  O  O32  1  0.418037  0.757903  0.572800  1
  O  O33  1  0.081963  0.654763  0.339866  1
  O  O34  1  0.685103  0.845237  0.927200  1
  O  O35  1  0.072800  0.257903  0.918037  1
  O  O36  1  0.154763  0.581963  0.839866  1
  O  O37  1  0.160134  0.814897  0.742097  1
