# generated using pymatgen
data_K2Mg3P4(H5O6)4
_symmetry_space_group_name_H-M   'P 1'
_cell_length_a   7.59829950
_cell_length_b   6.64907250
_cell_length_c   20.54155355
_cell_angle_alpha   90.00000000
_cell_angle_beta   93.22253290
_cell_angle_gamma   90.00000000
_symmetry_Int_Tables_number   1
_chemical_formula_structural   K2Mg3P4(H5O6)4
_chemical_formula_sum   'K4 Mg6 P8 H40 O48'
_cell_volume   1036.15203366
_cell_formula_units_Z   2
loop_
 _symmetry_equiv_pos_site_id
 _symmetry_equiv_pos_as_xyz
  1  'x, y, z'
loop_
 _atom_site_type_symbol
 _atom_site_label
 _atom_site_symmetry_multiplicity
 _atom_site_fract_x
 _atom_site_fract_y
 _atom_site_fract_z
 _atom_site_occupancy
  K  K0  1  0.238709  0.518608  0.944075  1
  K  K1  1  0.238709  0.981392  0.444075  1
  K  K2  1  0.761291  0.018608  0.555925  1
  K  K3  1  0.761291  0.481392  0.055925  1
  Mg  Mg4  1  0.000000  0.500000  0.500000  1
  Mg  Mg5  1  0.000000  0.000000  0.000000  1
  Mg  Mg6  1  0.232921  0.446394  0.764596  1
  Mg  Mg7  1  0.232921  0.053606  0.264596  1
  Mg  Mg8  1  0.767079  0.946394  0.735404  1
  Mg  Mg9  1  0.767079  0.553606  0.235404  1
  P  P10  1  0.066037  0.720739  0.645855  1
  P  P11  1  0.066037  0.779261  0.145855  1
  P  P12  1  0.461788  0.673506  0.653136  1
  P  P13  1  0.538212  0.173506  0.846864  1
  P  P14  1  0.461788  0.826494  0.153136  1
  P  P15  1  0.538212  0.326494  0.346864  1
  P  P16  1  0.933963  0.220739  0.854145  1
  P  P17  1  0.933963  0.279261  0.354145  1
  H  H18  1  0.062588  0.322719  0.614739  1
  H  H19  1  0.062588  0.177281  0.114739  1
  H  H20  1  0.153861  0.069309  0.709154  1
  H  H21  1  0.151149  0.844144  0.809862  1
  H  H22  1  0.184356  0.206964  0.569262  1
  H  H23  1  0.153861  0.430691  0.209154  1
  H  H24  1  0.151149  0.655856  0.309862  1
  H  H25  1  0.184356  0.293036  0.069262  1
  H  H26  1  0.336202  0.006333  0.953888  1
  H  H27  1  0.346800  0.565023  0.527500  1
  H  H28  1  0.355596  0.826671  0.802646  1
  H  H29  1  0.336202  0.493667  0.453888  1
  H  H30  1  0.354573  0.097957  0.737641  1
  H  H31  1  0.346800  0.934977  0.027500  1
  H  H32  1  0.355596  0.673329  0.302646  1
  H  H33  1  0.354573  0.402043  0.237641  1
  H  H34  1  0.417033  0.079471  0.611081  1
  H  H35  1  0.438271  0.298138  0.582369  1
  H  H36  1  0.417033  0.420529  0.111081  1
  H  H37  1  0.561729  0.798138  0.917631  1
  H  H38  1  0.438271  0.201862  0.082369  1
  H  H39  1  0.582967  0.579471  0.888919  1
  H  H40  1  0.561729  0.701862  0.417631  1
  H  H41  1  0.582967  0.920529  0.388919  1
  H  H42  1  0.645427  0.597957  0.762359  1
  H  H43  1  0.644404  0.326671  0.697354  1
  H  H44  1  0.653200  0.065023  0.972500  1
  H  H45  1  0.645427  0.902043  0.262359  1
  H  H46  1  0.663798  0.506333  0.546112  1
  H  H47  1  0.644404  0.173329  0.197354  1
  H  H48  1  0.653200  0.434977  0.472500  1
  H  H49  1  0.663798  0.993667  0.046112  1
  H  H50  1  0.815644  0.706964  0.930738  1
  H  H51  1  0.848851  0.344144  0.690138  1
  H  H52  1  0.846139  0.569309  0.790846  1
  H  H53  1  0.815644  0.793036  0.430738  1
  H  H54  1  0.848851  0.155856  0.190138  1
  H  H55  1  0.846139  0.930691  0.290846  1
  H  H56  1  0.937412  0.822719  0.885261  1
  H  H57  1  0.937412  0.677281  0.385261  1
  O  O58  1  0.015045  0.396443  0.818159  1
  O  O59  1  0.996466  0.703886  0.574880  1
  O  O60  1  0.063399  0.519278  0.682692  1
  O  O61  1  0.015045  0.103557  0.318159  1
  O  O62  1  0.062504  0.264185  0.570319  1
  O  O63  1  0.996466  0.796114  0.074880  1
  O  O64  1  0.063399  0.980722  0.182692  1
  O  O65  1  0.062504  0.235815  0.070319  1
  O  O66  1  0.265094  0.941691  0.987376  1
  O  O67  1  0.249344  0.746632  0.810252  1
  O  O68  1  0.248130  0.169485  0.719538  1
  O  O69  1  0.273618  0.789182  0.644028  1
  O  O70  1  0.265094  0.558309  0.487376  1
  O  O71  1  0.249344  0.753368  0.310252  1
  O  O72  1  0.248130  0.330515  0.219538  1
  O  O73  1  0.273618  0.710818  0.144028  1
  O  O74  1  0.406192  0.345680  0.839664  1
  O  O75  1  0.402475  0.157110  0.570443  1
  O  O76  1  0.457930  0.536977  0.713705  1
  O  O77  1  0.406192  0.154320  0.339664  1
  O  O78  1  0.516394  0.048824  0.909110  1
  O  O79  1  0.483606  0.548824  0.590890  1
  O  O80  1  0.402475  0.342890  0.070443  1
  O  O81  1  0.457930  0.963023  0.213705  1
  O  O82  1  0.542070  0.036977  0.786295  1
  O  O83  1  0.597525  0.657110  0.929557  1
  O  O84  1  0.516394  0.451176  0.409110  1
  O  O85  1  0.483606  0.951176  0.090890  1
  O  O86  1  0.593808  0.845680  0.660336  1
  O  O87  1  0.542070  0.463023  0.286295  1
  O  O88  1  0.597525  0.842890  0.429557  1
  O  O89  1  0.593808  0.654320  0.160336  1
  O  O90  1  0.726382  0.289182  0.855972  1
  O  O91  1  0.751870  0.669485  0.780462  1
  O  O92  1  0.750656  0.246632  0.689748  1
  O  O93  1  0.734906  0.441691  0.512624  1
  O  O94  1  0.726382  0.210818  0.355972  1
  O  O95  1  0.751870  0.830515  0.280462  1
  O  O96  1  0.750656  0.253368  0.189748  1
  O  O97  1  0.734906  0.058309  0.012624  1
  O  O98  1  0.937496  0.764185  0.929681  1
  O  O99  1  0.936601  0.019278  0.817308  1
  O  O100  1  0.003534  0.203886  0.925120  1
  O  O101  1  0.937496  0.735815  0.429681  1
  O  O102  1  0.984955  0.896443  0.681841  1
  O  O103  1  0.936601  0.480722  0.317308  1
  O  O104  1  0.003534  0.296114  0.425120  1
  O  O105  1  0.984955  0.603557  0.181841  1
