# generated using pymatgen
data_Li2MnP2O7
_symmetry_space_group_name_H-M   'P 1'
_cell_length_a   7.34985698
_cell_length_b   8.46208321
_cell_length_c   9.97800313
_cell_angle_alpha   90.00000000
_cell_angle_beta   110.61562748
_cell_angle_gamma   90.00000000
_symmetry_Int_Tables_number   1
_chemical_formula_structural   Li2MnP2O7
_chemical_formula_sum   'Li8 Mn4 P8 O28'
_cell_volume   580.84298068
_cell_formula_units_Z   4
loop_
 _symmetry_equiv_pos_site_id
 _symmetry_equiv_pos_as_xyz
  1  'x, y, z'
loop_
 _atom_site_type_symbol
 _atom_site_label
 _atom_site_symmetry_multiplicity
 _atom_site_fract_x
 _atom_site_fract_y
 _atom_site_fract_z
 _atom_site_occupancy
  Li  Li0  1  0.169042  0.137859  0.124632  1
  Li  Li1  1  0.830958  0.637859  0.875368  1
  Li  Li2  1  0.553499  0.919725  0.835232  1
  Li  Li3  1  0.265141  0.115452  0.615744  1
  Li  Li4  1  0.446501  0.419725  0.164768  1
  Li  Li5  1  0.908399  0.913814  0.282009  1
  Li  Li6  1  0.091601  0.413814  0.717991  1
  Li  Li7  1  0.734859  0.615452  0.384256  1
  Mn  Mn8  1  0.018910  0.499392  0.249336  1
  Mn  Mn9  1  0.483281  0.488318  0.733334  1
  Mn  Mn10  1  0.516719  0.988318  0.266666  1
  Mn  Mn11  1  0.981090  0.999392  0.750664  1
  P  P12  1  0.154831  0.762929  0.041880  1
  P  P13  1  0.845169  0.262929  0.958120  1
  P  P14  1  0.574136  0.804203  0.575904  1
  P  P15  1  0.425864  0.304203  0.424096  1
  P  P16  1  0.576708  0.694251  0.071805  1
  P  P17  1  0.423292  0.194251  0.928195  1
  P  P18  1  0.143968  0.748245  0.544012  1
  P  P19  1  0.856032  0.248245  0.455988  1
  O  O20  1  0.219239  0.908144  0.138118  1
  O  O21  1  0.052078  0.792796  0.882005  1
  O  O22  1  0.973309  0.147315  0.914339  1
  O  O23  1  0.026691  0.647315  0.085661  1
  O  O24  1  0.653283  0.339130  0.444336  1
  O  O25  1  0.947922  0.292796  0.117995  1
  O  O26  1  0.669989  0.942826  0.674984  1
  O  O27  1  0.590057  0.801592  0.426714  1
  O  O28  1  0.780761  0.408144  0.861882  1
  O  O29  1  0.637380  0.644823  0.650598  1
  O  O30  1  0.362620  0.144823  0.349402  1
  O  O31  1  0.646841  0.160550  0.938415  1
  O  O32  1  0.409943  0.301592  0.573286  1
  O  O33  1  0.330011  0.442826  0.325016  1
  O  O34  1  0.675698  0.555308  0.170379  1
  O  O35  1  0.581216  0.694830  0.919245  1
  O  O36  1  0.346717  0.839130  0.555664  1
  O  O37  1  0.646870  0.855117  0.143611  1
  O  O38  1  0.353130  0.355117  0.856389  1
  O  O39  1  0.197775  0.601168  0.638707  1
  O  O40  1  0.418784  0.194830  0.080755  1
  O  O41  1  0.324302  0.055308  0.829621  1
  O  O42  1  0.029248  0.714096  0.384163  1
  O  O43  1  0.353159  0.660550  0.061585  1
  O  O44  1  0.959756  0.379884  0.409436  1
  O  O45  1  0.040244  0.879884  0.590564  1
  O  O46  1  0.970752  0.214096  0.615837  1
  O  O47  1  0.802225  0.101168  0.361293  1
