# generated using pymatgen
data_V3Fe2Cu(PO4)6
_symmetry_space_group_name_H-M   'P 1'
_cell_length_a   8.46833427
_cell_length_b   8.46833427
_cell_length_c   8.46833427
_cell_angle_alpha   61.34858082
_cell_angle_beta   61.34858082
_cell_angle_gamma   61.34858082
_symmetry_Int_Tables_number   1
_chemical_formula_structural   V3Fe2Cu(PO4)6
_chemical_formula_sum   'V3 Fe2 Cu1 P6 O24'
_cell_volume   442.42985930
_cell_formula_units_Z   1
loop_
 _symmetry_equiv_pos_site_id
 _symmetry_equiv_pos_as_xyz
  1  'x, y, z'
loop_
 _atom_site_type_symbol
 _atom_site_label
 _atom_site_symmetry_multiplicity
 _atom_site_fract_x
 _atom_site_fract_y
 _atom_site_fract_z
 _atom_site_occupancy
  V  V0  1  0.643445  0.643445  0.643445  1
  V  V1  1  0.858655  0.858655  0.858655  1
  V  V2  1  0.356770  0.356770  0.356770  1
  Fe  Fe3  1  0.003228  0.003228  0.003228  1
  Fe  Fe4  1  0.501020  0.501020  0.501020  1
  Cu  Cu5  1  0.144393  0.144393  0.144393  1
  P  P6  1  0.956030  0.248020  0.542213  1
  P  P7  1  0.542213  0.956030  0.248020  1
  P  P8  1  0.248020  0.542213  0.956030  1
  P  P9  1  0.749733  0.457291  0.042216  1
  P  P10  1  0.457291  0.042216  0.749733  1
  P  P11  1  0.042216  0.749733  0.457291  1
  O  O12  1  0.503205  0.120648  0.310752  1
  O  O13  1  0.310752  0.503205  0.120648  1
  O  O14  1  0.120648  0.310752  0.503205  1
  O  O15  1  0.941887  0.088594  0.742009  1
  O  O16  1  0.980255  0.189193  0.388944  1
  O  O17  1  0.759058  0.412079  0.567905  1
  O  O18  1  0.742009  0.941887  0.088594  1
  O  O19  1  0.567905  0.759058  0.412079  1
  O  O20  1  0.812999  0.620609  0.003365  1
  O  O21  1  0.412079  0.567905  0.759058  1
  O  O22  1  0.904589  0.264720  0.050065  1
  O  O23  1  0.620609  0.003365  0.812999  1
  O  O24  1  0.388944  0.980255  0.189193  1
  O  O25  1  0.088594  0.742009  0.941887  1
  O  O26  1  0.584895  0.446727  0.238408  1
  O  O27  1  0.189193  0.388944  0.980255  1
  O  O28  1  0.446727  0.238408  0.584895  1
  O  O29  1  0.264720  0.050065  0.904589  1
  O  O30  1  0.238408  0.584895  0.446727  1
  O  O31  1  0.003365  0.812999  0.620609  1
  O  O32  1  0.050065  0.904589  0.264720  1
  O  O33  1  0.884768  0.673596  0.507715  1
  O  O34  1  0.673596  0.507715  0.884768  1
  O  O35  1  0.507715  0.884768  0.673596  1
