# generated using pymatgen
data_Li3Bi2(PO4)3
_symmetry_space_group_name_H-M   'P 1'
_cell_length_a   9.71711874
_cell_length_b   9.71711874
_cell_length_c   17.38783966
_cell_angle_alpha   63.94400193
_cell_angle_beta   116.05599807
_cell_angle_gamma   130.65597953
_symmetry_Int_Tables_number   1
_chemical_formula_structural   Li3Bi2(PO4)3
_chemical_formula_sum   'Li12 Bi8 P12 O48'
_cell_volume   1090.35166805
_cell_formula_units_Z   4
loop_
 _symmetry_equiv_pos_site_id
 _symmetry_equiv_pos_as_xyz
  1  'x, y, z'
loop_
 _atom_site_type_symbol
 _atom_site_label
 _atom_site_symmetry_multiplicity
 _atom_site_fract_x
 _atom_site_fract_y
 _atom_site_fract_z
 _atom_site_occupancy
  Li  Li0  1  0.232077  0.503475  0.354483  1
  Li  Li1  1  0.774909  0.132563  0.949142  1
  Li  Li2  1  0.534597  0.534597  0.250000  1
  Li  Li3  1  0.132563  0.774909  0.550858  1
  Li  Li4  1  0.503475  0.232077  0.145517  1
  Li  Li5  1  0.500000  0.000000  0.500000  1
  Li  Li6  1  0.496525  0.767923  0.854483  1
  Li  Li7  1  0.867437  0.225091  0.449142  1
  Li  Li8  1  0.465403  0.465403  0.750000  1
  Li  Li9  1  0.225091  0.867437  0.050858  1
  Li  Li10  1  0.767923  0.496525  0.645517  1
  Li  Li11  1  0.000000  0.500000  0.000000  1
  Bi  Bi12  1  0.281168  0.201971  0.529951  1
  Bi  Bi13  1  0.250931  0.932585  0.835311  1
  Bi  Bi14  1  0.932585  0.250931  0.664689  1
  Bi  Bi15  1  0.201971  0.281168  0.970049  1
  Bi  Bi16  1  0.798029  0.718832  0.029951  1
  Bi  Bi17  1  0.067415  0.749069  0.335311  1
  Bi  Bi18  1  0.749069  0.067415  0.164689  1
  Bi  Bi19  1  0.718832  0.798029  0.470049  1
  P  P20  1  0.063212  0.059131  0.363100  1
  P  P21  1  0.492389  0.068360  0.688835  1
  P  P22  1  0.386527  0.670654  0.039014  1
  P  P23  1  0.670654  0.386527  0.460986  1
  P  P24  1  0.068360  0.492389  0.811165  1
  P  P25  1  0.059131  0.063212  0.136900  1
  P  P26  1  0.940869  0.936788  0.863100  1
  P  P27  1  0.931640  0.507611  0.188835  1
  P  P28  1  0.329346  0.613473  0.539014  1
  P  P29  1  0.613473  0.329347  0.960986  1
  P  P30  1  0.507611  0.931640  0.311165  1
  P  P31  1  0.936788  0.940869  0.636900  1
  O  O32  1  0.030646  0.532145  0.284677  1
  O  O33  1  0.044609  0.691290  0.123038  1
  O  O34  1  0.964051  0.824546  0.835168  1
  O  O35  1  0.952073  0.060071  0.538095  1
  O  O36  1  0.250022  0.480813  0.480937  1
  O  O37  1  0.142361  0.030140  0.690174  1
  O  O38  1  0.162156  0.259287  0.368589  1
  O  O39  1  0.531387  0.263380  0.663847  1
  O  O40  1  0.293839  0.780697  0.002132  1
  O  O41  1  0.076589  0.646574  0.823079  1
  O  O42  1  0.491051  0.678813  0.135580  1
  O  O43  1  0.467855  0.969354  0.784677  1
  O  O44  1  0.468738  0.215565  0.473448  1
  O  O45  1  0.308710  0.955391  0.623038  1
  O  O46  1  0.215565  0.468738  0.026552  1
  O  O47  1  0.175454  0.035949  0.335168  1
  O  O48  1  0.678813  0.491051  0.364420  1
  O  O49  1  0.939929  0.047927  0.038095  1
  O  O50  1  0.646574  0.076589  0.676921  1
  O  O51  1  0.519187  0.749978  0.980937  1
  O  O52  1  0.969860  0.857639  0.190174  1
  O  O53  1  0.780697  0.293839  0.497868  1
  O  O54  1  0.259287  0.162156  0.131411  1
  O  O55  1  0.263380  0.531387  0.836153  1
  O  O56  1  0.736620  0.468613  0.163847  1
  O  O57  1  0.740713  0.837844  0.868589  1
  O  O58  1  0.219303  0.706161  0.502132  1
  O  O59  1  0.030140  0.142361  0.809826  1
  O  O60  1  0.480813  0.250022  0.019063  1
  O  O61  1  0.353426  0.923411  0.323079  1
  O  O62  1  0.060071  0.952073  0.961905  1
  O  O63  1  0.321187  0.508949  0.635580  1
  O  O64  1  0.824546  0.964051  0.664832  1
  O  O65  1  0.784435  0.531262  0.973448  1
  O  O66  1  0.691290  0.044609  0.376962  1
  O  O67  1  0.531262  0.784435  0.526552  1
  O  O68  1  0.532145  0.030646  0.215323  1
  O  O69  1  0.508949  0.321187  0.864420  1
  O  O70  1  0.923411  0.353426  0.176921  1
  O  O71  1  0.706161  0.219303  0.997868  1
  O  O72  1  0.468613  0.736620  0.336153  1
  O  O73  1  0.837844  0.740713  0.631411  1
  O  O74  1  0.857639  0.969860  0.309826  1
  O  O75  1  0.749978  0.519187  0.519063  1
  O  O76  1  0.047927  0.939929  0.461905  1
  O  O77  1  0.035949  0.175454  0.164832  1
  O  O78  1  0.955391  0.308710  0.876962  1
  O  O79  1  0.969354  0.467855  0.715323  1
