# generated using pymatgen
data_LiV4O5F7
_symmetry_space_group_name_H-M   'P 1'
_cell_length_a   5.09088274
_cell_length_b   5.36525665
_cell_length_c   9.06237405
_cell_angle_alpha   73.67493371
_cell_angle_beta   74.99284868
_cell_angle_gamma   62.91057263
_symmetry_Int_Tables_number   1
_chemical_formula_structural   LiV4O5F7
_chemical_formula_sum   'Li1 V4 O5 F7'
_cell_volume   208.99081499
_cell_formula_units_Z   1
loop_
 _symmetry_equiv_pos_site_id
 _symmetry_equiv_pos_as_xyz
  1  'x, y, z'
loop_
 _atom_site_type_symbol
 _atom_site_label
 _atom_site_symmetry_multiplicity
 _atom_site_fract_x
 _atom_site_fract_y
 _atom_site_fract_z
 _atom_site_occupancy
  Li  Li0  1  0.427268  0.263350  0.859111  1
  V  V1  1  0.992888  0.995729  0.008364  1
  V  V2  1  0.795558  0.733168  0.745091  1
  V  V3  1  0.515261  0.516700  0.497046  1
  V  V4  1  0.207265  0.259695  0.247431  1
  O  O5  1  0.834996  0.855224  0.914960  1
  O  O6  1  0.655623  0.664804  0.582459  1
  O  O7  1  0.842896  0.410641  0.327571  1
  O  O8  1  0.165443  0.566935  0.677008  1
  O  O9  1  0.170331  0.176148  0.064821  1
  F  F10  1  0.738439  0.390754  0.878775  1
  F  F11  1  0.340106  0.940155  0.825479  1
  F  F12  1  0.712986  0.128224  0.631385  1
  F  F13  1  0.272057  0.868786  0.369001  1
  F  F14  1  0.659930  0.078766  0.180412  1
  F  F15  1  0.338712  0.324522  0.421926  1
  F  F16  1  0.227963  0.620336  0.124811  1
