# generated using pymatgen
data_LiMn2OF5
_symmetry_space_group_name_H-M   'P 1'
_cell_length_a   5.12000632
_cell_length_b   4.73219697
_cell_length_c   17.29305717
_cell_angle_alpha   90.00000000
_cell_angle_beta   91.45296966
_cell_angle_gamma   90.00000000
_symmetry_Int_Tables_number   1
_chemical_formula_structural   LiMn2OF5
_chemical_formula_sum   'Li4 Mn8 O4 F20'
_cell_volume   418.85666285
_cell_formula_units_Z   4
loop_
 _symmetry_equiv_pos_site_id
 _symmetry_equiv_pos_as_xyz
  1  'x, y, z'
loop_
 _atom_site_type_symbol
 _atom_site_label
 _atom_site_symmetry_multiplicity
 _atom_site_fract_x
 _atom_site_fract_y
 _atom_site_fract_z
 _atom_site_occupancy
  Li  Li0  1  0.748753  0.260350  0.381795  1
  Li  Li1  1  0.253596  0.239233  0.610823  1
  Li  Li2  1  0.748753  0.739650  0.881795  1
  Li  Li3  1  0.253596  0.760767  0.110823  1
  Mn  Mn4  1  0.235635  0.260034  0.281616  1
  Mn  Mn5  1  0.750589  0.267978  0.055211  1
  Mn  Mn6  1  0.774988  0.294481  0.709964  1
  Mn  Mn7  1  0.242561  0.249480  0.945780  1
  Mn  Mn8  1  0.774988  0.705519  0.209964  1
  Mn  Mn9  1  0.750589  0.732022  0.555211  1
  Mn  Mn10  1  0.235635  0.739966  0.781616  1
  Mn  Mn11  1  0.242561  0.750520  0.445780  1
  O  O12  1  0.932222  0.512344  0.784980  1
  O  O13  1  0.915678  0.493893  0.628237  1
  O  O14  1  0.915678  0.506107  0.128237  1
  O  O15  1  0.932222  0.487656  0.284980  1
  F  F16  1  0.915765  0.487016  0.959434  1
  F  F17  1  0.430889  0.482340  0.044527  1
  F  F18  1  0.437609  0.512952  0.209436  1
  F  F19  1  0.417169  0.476552  0.371255  1
  F  F20  1  0.417169  0.523448  0.871255  1
  F  F21  1  0.437609  0.487048  0.709436  1
  F  F22  1  0.915765  0.512984  0.459434  1
  F  F23  1  0.430889  0.517660  0.544527  1
  F  F24  1  0.590642  0.960755  0.472768  1
  F  F25  1  0.069471  0.961283  0.542743  1
  F  F26  1  0.547594  0.021394  0.291036  1
  F  F27  1  0.064229  0.036198  0.706838  1
  F  F28  1  0.594498  0.963398  0.135783  1
  F  F29  1  0.078114  0.964152  0.867775  1
  F  F30  1  0.078114  0.035848  0.367775  1
  F  F31  1  0.594498  0.036602  0.635783  1
  F  F32  1  0.547594  0.978606  0.791036  1
  F  F33  1  0.064229  0.963802  0.206838  1
  F  F34  1  0.069471  0.038717  0.042743  1
  F  F35  1  0.590642  0.039245  0.972768  1
