# generated using pymatgen
data_Li3Sn2(PO4)3
_symmetry_space_group_name_H-M   'P 1'
_cell_length_a   5.05430998
_cell_length_b   5.05430998
_cell_length_c   20.42423907
_cell_angle_alpha   89.81528319
_cell_angle_beta   90.18471681
_cell_angle_gamma   113.62721381
_symmetry_Int_Tables_number   1
_chemical_formula_structural   Li3Sn2(PO4)3
_chemical_formula_sum   'Li6 Sn4 P6 O24'
_cell_volume   478.01733817
_cell_formula_units_Z   2
loop_
 _symmetry_equiv_pos_site_id
 _symmetry_equiv_pos_as_xyz
  1  'x, y, z'
loop_
 _atom_site_type_symbol
 _atom_site_label
 _atom_site_symmetry_multiplicity
 _atom_site_fract_x
 _atom_site_fract_y
 _atom_site_fract_z
 _atom_site_occupancy
  Li  Li0  1  0.993535  0.006465  0.350514  1
  Li  Li1  1  0.664326  0.335674  0.587551  1
  Li  Li2  1  0.667203  0.332797  0.274279  1
  Li  Li3  1  0.332797  0.667203  0.725721  1
  Li  Li4  1  0.006465  0.993535  0.649486  1
  Li  Li5  1  0.335674  0.664326  0.412449  1
  Sn  Sn6  1  0.000000  0.000000  0.000000  1
  Sn  Sn7  1  0.998931  0.001069  0.179988  1
  Sn  Sn8  1  0.001069  0.998931  0.820012  1
  Sn  Sn9  1  0.000000  0.000000  0.500000  1
  P  P10  1  0.652858  0.347142  0.744782  1
  P  P11  1  0.642421  0.357579  0.103525  1
  P  P12  1  0.641000  0.359000  0.414232  1
  P  P13  1  0.357579  0.642421  0.896475  1
  P  P14  1  0.359000  0.641000  0.585768  1
  P  P15  1  0.347142  0.652858  0.255218  1
  O  O16  1  0.299858  0.235058  0.106608  1
  O  O17  1  0.309481  0.241482  0.749462  1
  O  O18  1  0.304759  0.247837  0.407339  1
  O  O19  1  0.235058  0.299858  0.893392  1
  O  O20  1  0.247837  0.304759  0.592661  1
  O  O21  1  0.241482  0.309481  0.250538  1
  O  O22  1  0.271118  0.728882  0.961263  1
  O  O23  1  0.239480  0.760520  0.642272  1
  O  O24  1  0.253205  0.746795  0.316905  1
  O  O25  1  0.751203  0.248797  0.166038  1
  O  O26  1  0.728882  0.271118  0.038737  1
  O  O27  1  0.759547  0.240453  0.807110  1
  O  O28  1  0.240453  0.759547  0.192890  1
  O  O29  1  0.248797  0.751203  0.833962  1
  O  O30  1  0.746795  0.253205  0.683095  1
  O  O31  1  0.282412  0.717588  0.517035  1
  O  O32  1  0.717588  0.282412  0.482965  1
  O  O33  1  0.760520  0.239480  0.357728  1
  O  O34  1  0.700142  0.764942  0.893392  1
  O  O35  1  0.690519  0.758518  0.250538  1
  O  O36  1  0.695241  0.752163  0.592661  1
  O  O37  1  0.764942  0.700142  0.106608  1
  O  O38  1  0.752163  0.695241  0.407339  1
  O  O39  1  0.758518  0.690519  0.749462  1
