# generated using pymatgen
data_Li2Cr2(PO4)3
_symmetry_space_group_name_H-M   'P 1'
_cell_length_a   8.62364592
_cell_length_b   8.62364592
_cell_length_c   8.69399176
_cell_angle_alpha   59.81632921
_cell_angle_beta   120.18367079
_cell_angle_gamma   119.59403234
_symmetry_Int_Tables_number   1
_chemical_formula_structural   Li2Cr2(PO4)3
_chemical_formula_sum   'Li4 Cr4 P6 O24'
_cell_volume   457.27981664
_cell_formula_units_Z   2
loop_
 _symmetry_equiv_pos_site_id
 _symmetry_equiv_pos_as_xyz
  1  'x, y, z'
loop_
 _atom_site_type_symbol
 _atom_site_label
 _atom_site_symmetry_multiplicity
 _atom_site_fract_x
 _atom_site_fract_y
 _atom_site_fract_z
 _atom_site_occupancy
  Li  Li0  1  0.676302  0.175005  0.052859  1
  Li  Li1  1  0.175005  0.676302  0.447141  1
  Li  Li2  1  0.824995  0.323698  0.552859  1
  Li  Li3  1  0.323698  0.824995  0.947141  1
  Cr  Cr4  1  0.861047  0.638894  0.078775  1
  Cr  Cr5  1  0.638894  0.861047  0.421225  1
  Cr  Cr6  1  0.361106  0.138953  0.578775  1
  Cr  Cr7  1  0.138953  0.361106  0.921225  1
  P  P8  1  0.965816  0.965816  0.250000  1
  P  P9  1  0.034184  0.034184  0.750000  1
  P  P10  1  0.538509  0.253083  0.252025  1
  P  P11  1  0.253083  0.538509  0.247975  1
  P  P12  1  0.746917  0.461491  0.752025  1
  P  P13  1  0.461491  0.746917  0.747975  1
  O  O14  1  0.865755  0.008185  0.569775  1
  O  O15  1  0.700060  0.628341  0.577778  1
  O  O16  1  0.951362  0.777703  0.252578  1
  O  O17  1  0.472469  0.796428  0.556427  1
  O  O18  1  0.991815  0.134245  0.069775  1
  O  O19  1  0.777703  0.951362  0.247422  1
  O  O20  1  0.730211  0.418489  0.256409  1
  O  O21  1  0.562027  0.091007  0.241484  1
  O  O22  1  0.418490  0.730211  0.243591  1
  O  O23  1  0.796428  0.472469  0.943573  1
  O  O24  1  0.908993  0.437973  0.741484  1
  O  O25  1  0.628341  0.700060  0.922222  1
  O  O26  1  0.371659  0.299940  0.077778  1
  O  O27  1  0.091007  0.562027  0.258516  1
  O  O28  1  0.203572  0.527531  0.056427  1
  O  O29  1  0.581511  0.269789  0.756409  1
  O  O30  1  0.437973  0.908993  0.758516  1
  O  O31  1  0.269789  0.581511  0.743591  1
  O  O32  1  0.222297  0.048638  0.752578  1
  O  O33  1  0.008185  0.865755  0.930225  1
  O  O34  1  0.527531  0.203572  0.443573  1
  O  O35  1  0.048638  0.222297  0.747422  1
  O  O36  1  0.299940  0.371659  0.422222  1
  O  O37  1  0.134245  0.991815  0.430225  1
