# generated using pymatgen
data_Co6O5F7
_symmetry_space_group_name_H-M   'P 1'
_cell_length_a   4.66867575
_cell_length_b   5.58399670
_cell_length_c   7.63470939
_cell_angle_alpha   85.68661852
_cell_angle_beta   87.16075956
_cell_angle_gamma   86.81202309
_symmetry_Int_Tables_number   1
_chemical_formula_structural   Co6O5F7
_chemical_formula_sum   'Co6 O5 F7'
_cell_volume   197.95929909
_cell_formula_units_Z   1
loop_
 _symmetry_equiv_pos_site_id
 _symmetry_equiv_pos_as_xyz
  1  'x, y, z'
loop_
 _atom_site_type_symbol
 _atom_site_label
 _atom_site_symmetry_multiplicity
 _atom_site_fract_x
 _atom_site_fract_y
 _atom_site_fract_z
 _atom_site_occupancy
  Co  Co0  1  0.508576  0.489008  0.999411  1
  Co  Co1  1  0.489189  0.174627  0.331182  1
  Co  Co2  1  0.530546  0.853897  0.678523  1
  Co  Co3  1  0.997124  0.325195  0.666640  1
  Co  Co4  1  0.026974  0.655136  0.328805  1
  Co  Co5  1  0.959190  0.012612  0.000198  1
  O  O6  1  0.797982  0.032627  0.768173  1
  O  O7  1  0.698063  0.530731  0.775463  1
  O  O8  1  0.686653  0.201142  0.103864  1
  O  O9  1  0.299598  0.140539  0.559852  1
  O  O10  1  0.321864  0.455107  0.224149  1
  F  F11  1  0.807473  0.369204  0.434525  1
  F  F12  1  0.802473  0.703207  0.100235  1
  F  F13  1  0.693375  0.872663  0.425469  1
  F  F14  1  0.292851  0.792522  0.908289  1
  F  F15  1  0.190625  0.964525  0.223647  1
  F  F16  1  0.194284  0.288565  0.900008  1
  F  F17  1  0.203160  0.638692  0.571568  1
