# generated using pymatgen
data_Li3VPCO7
_symmetry_space_group_name_H-M   'P 1'
_cell_length_a   4.88072057
_cell_length_b   6.53980344
_cell_length_c   8.63005757
_cell_angle_alpha   90.00000000
_cell_angle_beta   91.01668349
_cell_angle_gamma   90.00000000
_symmetry_Int_Tables_number   1
_chemical_formula_structural   Li3VPCO7
_chemical_formula_sum   'Li6 V2 P2 C2 O14'
_cell_volume   275.41903727
_cell_formula_units_Z   2
loop_
 _symmetry_equiv_pos_site_id
 _symmetry_equiv_pos_as_xyz
  1  'x, y, z'
loop_
 _atom_site_type_symbol
 _atom_site_label
 _atom_site_symmetry_multiplicity
 _atom_site_fract_x
 _atom_site_fract_y
 _atom_site_fract_z
 _atom_site_occupancy
  Li  Li0  1  0.759270  0.268955  0.888226  1
  Li  Li1  1  0.222726  0.471828  0.700353  1
  Li  Li2  1  0.768983  0.737393  0.627936  1
  Li  Li3  1  0.231017  0.237393  0.372064  1
  Li  Li4  1  0.777274  0.971828  0.299647  1
  Li  Li5  1  0.240730  0.768955  0.111774  1
  V  V6  1  0.232772  0.981024  0.753732  1
  V  V7  1  0.767228  0.481024  0.246268  1
  P  P8  1  0.714942  0.245406  0.588656  1
  P  P9  1  0.285058  0.745406  0.411344  1
  C  C10  1  0.737508  0.771180  0.949197  1
  C  C11  1  0.262492  0.271180  0.050803  1
  O  O12  1  0.999155  0.798251  0.928969  1
  O  O13  1  0.347549  0.234507  0.909456  1
  O  O14  1  0.563152  0.776372  0.836948  1
  O  O15  1  0.833816  0.059488  0.677516  1
  O  O16  1  0.810077  0.435954  0.681689  1
  O  O17  1  0.191646  0.742883  0.582749  1
  O  O18  1  0.394971  0.226756  0.590146  1
  O  O19  1  0.605029  0.726756  0.409854  1
  O  O20  1  0.808354  0.242883  0.417251  1
  O  O21  1  0.189923  0.935954  0.318311  1
  O  O22  1  0.166184  0.559488  0.322484  1
  O  O23  1  0.436848  0.276372  0.163052  1
  O  O24  1  0.652451  0.734507  0.090544  1
  O  O25  1  0.000845  0.298251  0.071031  1
