# generated using pymatgen
data_CsH5S2(NO3)2
_symmetry_space_group_name_H-M   'P 1'
_cell_length_a   5.35728582
_cell_length_b   6.33261540
_cell_length_c   25.18530700
_cell_angle_alpha   90.00000000
_cell_angle_beta   90.00000000
_cell_angle_gamma   90.00000000
_symmetry_Int_Tables_number   1
_chemical_formula_structural   CsH5S2(NO3)2
_chemical_formula_sum   'Cs4 H20 S8 N8 O24'
_cell_volume   854.42742399
_cell_formula_units_Z   4
loop_
 _symmetry_equiv_pos_site_id
 _symmetry_equiv_pos_as_xyz
  1  'x, y, z'
loop_
 _atom_site_type_symbol
 _atom_site_label
 _atom_site_symmetry_multiplicity
 _atom_site_fract_x
 _atom_site_fract_y
 _atom_site_fract_z
 _atom_site_occupancy
  Cs  Cs0  1  0.095475  0.021643  0.846595  1
  Cs  Cs1  1  0.404525  0.978357  0.346595  1
  Cs  Cs2  1  0.595475  0.478357  0.153405  1
  Cs  Cs3  1  0.904525  0.521643  0.653405  1
  H  H4  1  0.043538  0.639419  0.248613  1
  H  H5  1  0.069428  0.048135  0.083115  1
  H  H6  1  0.094738  0.844839  0.036974  1
  H  H7  1  0.111811  0.102041  0.016150  1
  H  H8  1  0.229187  0.474278  0.282302  1
  H  H9  1  0.270813  0.525722  0.782302  1
  H  H10  1  0.388189  0.897959  0.516150  1
  H  H11  1  0.405262  0.155161  0.536974  1
  H  H12  1  0.430572  0.951865  0.583115  1
  H  H13  1  0.456462  0.360581  0.748613  1
  H  H14  1  0.543538  0.860581  0.751387  1
  H  H15  1  0.569428  0.451865  0.916885  1
  H  H16  1  0.594738  0.655161  0.963026  1
  H  H17  1  0.611811  0.397959  0.983850  1
  H  H18  1  0.729187  0.025722  0.717698  1
  H  H19  1  0.770813  0.974278  0.217698  1
  H  H20  1  0.888189  0.602041  0.483850  1
  H  H21  1  0.905262  0.344839  0.463026  1
  H  H22  1  0.930572  0.548135  0.416885  1
  H  H23  1  0.956462  0.139419  0.251387  1
  S  S24  1  0.157568  0.985607  0.183347  1
  S  S25  1  0.198996  0.495240  0.966434  1
  S  S26  1  0.301004  0.504760  0.466434  1
  S  S27  1  0.342432  0.014393  0.683347  1
  S  S28  1  0.657568  0.514393  0.816653  1
  S  S29  1  0.698996  0.004760  0.033566  1
  S  S30  1  0.801004  0.995240  0.533566  1
  S  S31  1  0.842432  0.485607  0.316653  1
  N  N32  1  0.031805  0.998567  0.043511  1
  N  N33  1  0.051606  0.495921  0.267663  1
  N  N34  1  0.448394  0.504079  0.767663  1
  N  N35  1  0.468195  0.001433  0.543511  1
  N  N36  1  0.531805  0.501433  0.956489  1
  N  N37  1  0.551606  0.004079  0.732337  1
  N  N38  1  0.948394  0.995921  0.232337  1
  N  N39  1  0.968195  0.498567  0.456489  1
  O  O40  1  0.107316  0.156985  0.144248  1
  O  O41  1  0.101377  0.984285  0.710107  1
  O  O42  1  0.118966  0.775764  0.160211  1
  O  O43  1  0.110865  0.640431  0.926479  1
  O  O44  1  0.142945  0.272430  0.957113  1
  O  O45  1  0.168598  0.561654  0.021463  1
  O  O46  1  0.331402  0.438346  0.521463  1
  O  O47  1  0.357055  0.727570  0.457113  1
  O  O48  1  0.389135  0.359569  0.426479  1
  O  O49  1  0.381034  0.224236  0.660211  1
  O  O50  1  0.398623  0.015715  0.210107  1
  O  O51  1  0.392684  0.843015  0.644248  1
  O  O52  1  0.607316  0.343015  0.855752  1
  O  O53  1  0.601377  0.515715  0.289893  1
  O  O54  1  0.618966  0.724236  0.839789  1
  O  O55  1  0.610865  0.859569  0.073521  1
  O  O56  1  0.642945  0.227570  0.042887  1
  O  O57  1  0.668598  0.938346  0.978537  1
  O  O58  1  0.831402  0.061654  0.478537  1
  O  O59  1  0.857055  0.772430  0.542887  1
  O  O60  1  0.889135  0.140431  0.573521  1
  O  O61  1  0.881034  0.275764  0.339789  1
  O  O62  1  0.898623  0.484285  0.789893  1
  O  O63  1  0.892684  0.656985  0.355752  1
