# generated using pymatgen
data_Li2VCoO4
_symmetry_space_group_name_H-M   'P 1'
_cell_length_a   5.94231647
_cell_length_b   5.94231647
_cell_length_c   5.94231647
_cell_angle_alpha   119.96513110
_cell_angle_beta   119.75169133
_cell_angle_gamma   90.24551338
_symmetry_Int_Tables_number   1
_chemical_formula_structural   Li2VCoO4
_chemical_formula_sum   'Li4 V2 Co2 O8'
_cell_volume   148.68754435
_cell_formula_units_Z   2
loop_
 _symmetry_equiv_pos_site_id
 _symmetry_equiv_pos_as_xyz
  1  'x, y, z'
loop_
 _atom_site_type_symbol
 _atom_site_label
 _atom_site_symmetry_multiplicity
 _atom_site_fract_x
 _atom_site_fract_y
 _atom_site_fract_z
 _atom_site_occupancy
  Li  Li0  1  0.500000  0.500000  0.500000  1
  Li  Li1  1  0.500000  0.000000  0.500000  1
  Li  Li2  1  0.000000  0.500000  1.000000  1
  Li  Li3  1  0.500000  0.500000  0.000000  1
  V  V4  1  0.500000  0.000000  1.000000  1
  V  V5  1  0.000000  0.000000  0.500000  1
  Co  Co6  1  0.000000  0.500000  0.500000  1
  Co  Co7  1  0.000000  0.000000  0.000000  1
  O  O8  1  0.253606  0.235727  0.982120  1
  O  O9  1  0.776611  0.771747  0.504864  1
  O  O10  1  0.253606  0.771486  0.517880  1
  O  O11  1  0.266883  0.771747  0.995136  1
  O  O12  1  0.733117  0.228253  0.004864  1
  O  O13  1  0.746394  0.228514  0.482120  1
  O  O14  1  0.223389  0.228253  0.495136  1
  O  O15  1  0.746394  0.764273  0.017880  1
