# generated using pymatgen
data_Li2Si2Ni2O7
_symmetry_space_group_name_H-M   'P 1'
_cell_length_a   5.48445839
_cell_length_b   13.02112676
_cell_length_c   9.65038356
_cell_angle_alpha   90.00000000
_cell_angle_beta   123.38473381
_cell_angle_gamma   90.00000000
_symmetry_Int_Tables_number   1
_chemical_formula_structural   Li2Si2Ni2O7
_chemical_formula_sum   'Li8 Si8 Ni8 O28'
_cell_volume   575.45385741
_cell_formula_units_Z   4
loop_
 _symmetry_equiv_pos_site_id
 _symmetry_equiv_pos_as_xyz
  1  'x, y, z'
loop_
 _atom_site_type_symbol
 _atom_site_label
 _atom_site_symmetry_multiplicity
 _atom_site_fract_x
 _atom_site_fract_y
 _atom_site_fract_z
 _atom_site_occupancy
  Li  Li0  1  0.729438  0.358474  0.880556  1
  Li  Li1  1  0.027983  0.749080  0.825423  1
  Li  Li2  1  0.972017  0.249080  0.674577  1
  Li  Li3  1  0.270562  0.858474  0.619444  1
  Li  Li4  1  0.729438  0.141526  0.380556  1
  Li  Li5  1  0.027983  0.750920  0.325423  1
  Li  Li6  1  0.972017  0.250920  0.174577  1
  Li  Li7  1  0.270562  0.641526  0.119444  1
  Si  Si8  1  0.787651  0.890276  0.967568  1
  Si  Si9  1  0.635367  0.676864  0.955110  1
  Si  Si10  1  0.364633  0.176864  0.544890  1
  Si  Si11  1  0.212349  0.390276  0.532432  1
  Si  Si12  1  0.787651  0.609724  0.467568  1
  Si  Si13  1  0.635367  0.823136  0.455110  1
  Si  Si14  1  0.364633  0.323136  0.044890  1
  Si  Si15  1  0.212349  0.109724  0.032432  1
  Ni  Ni16  1  0.548544  0.085608  0.895002  1
  Ni  Ni17  1  0.169460  0.491138  0.809314  1
  Ni  Ni18  1  0.830540  0.991138  0.690686  1
  Ni  Ni19  1  0.451456  0.585608  0.604998  1
  Ni  Ni20  1  0.548544  0.414392  0.395002  1
  Ni  Ni21  1  0.169460  0.008862  0.309314  1
  Ni  Ni22  1  0.830540  0.508862  0.190686  1
  Ni  Ni23  1  0.451456  0.914392  0.104998  1
  O  O24  1  0.559774  0.801951  0.960266  1
  O  O25  1  0.913134  0.165465  0.981524  1
  O  O26  1  0.200274  0.024723  0.901203  1
  O  O27  1  0.342113  0.621903  0.928403  1
  O  O28  1  0.076010  0.355674  0.862552  1
  O  O29  1  0.702165  0.663259  0.812517  1
  O  O30  1  0.605471  0.950887  0.788442  1
  O  O31  1  0.394529  0.450887  0.711558  1
  O  O32  1  0.297835  0.163259  0.687483  1
  O  O33  1  0.923990  0.855674  0.637448  1
  O  O34  1  0.657887  0.121903  0.571597  1
  O  O35  1  0.799726  0.524723  0.598797  1
  O  O36  1  0.086866  0.665465  0.518476  1
  O  O37  1  0.440226  0.301951  0.539734  1
  O  O38  1  0.559774  0.698049  0.460266  1
  O  O39  1  0.913134  0.334535  0.481524  1
  O  O40  1  0.200274  0.475277  0.401203  1
  O  O41  1  0.342113  0.878097  0.428403  1
  O  O42  1  0.076010  0.144326  0.362552  1
  O  O43  1  0.702165  0.836741  0.312517  1
  O  O44  1  0.605471  0.549113  0.288442  1
  O  O45  1  0.394529  0.049113  0.211558  1
  O  O46  1  0.297835  0.336741  0.187483  1
  O  O47  1  0.923990  0.644326  0.137448  1
  O  O48  1  0.657887  0.378097  0.071597  1
  O  O49  1  0.799726  0.975277  0.098797  1
  O  O50  1  0.086866  0.834535  0.018476  1
  O  O51  1  0.440226  0.198049  0.039734  1
