# generated using pymatgen
data_Li2Mn3P9O28
_symmetry_space_group_name_H-M   'P 1'
_cell_length_a   7.08448056
_cell_length_b   8.88929099
_cell_length_c   9.18142409
_cell_angle_alpha   110.65880331
_cell_angle_beta   108.97730030
_cell_angle_gamma   98.47588591
_symmetry_Int_Tables_number   1
_chemical_formula_structural   Li2Mn3P9O28
_chemical_formula_sum   'Li2 Mn3 P9 O28'
_cell_volume   488.65866914
_cell_formula_units_Z   1
loop_
 _symmetry_equiv_pos_site_id
 _symmetry_equiv_pos_as_xyz
  1  'x, y, z'
loop_
 _atom_site_type_symbol
 _atom_site_label
 _atom_site_symmetry_multiplicity
 _atom_site_fract_x
 _atom_site_fract_y
 _atom_site_fract_z
 _atom_site_occupancy
  Li  Li0  1  0.711867  0.961332  0.227385  1
  Li  Li1  1  0.288133  0.038668  0.772615  1
  Mn  Mn2  1  0.500000  0.500000  0.000000  1
  Mn  Mn3  1  0.240571  0.985790  0.240607  1
  Mn  Mn4  1  0.759429  0.014210  0.759393  1
  P  P5  1  0.301097  0.754767  0.445896  1
  P  P6  1  0.785938  0.761335  0.931423  1
  P  P7  1  0.689086  0.707633  0.421400  1
  P  P8  1  0.157184  0.681196  0.893222  1
  P  P9  1  0.000000  0.500000  0.500000  1
  P  P10  1  0.310914  0.292367  0.578600  1
  P  P11  1  0.842816  0.318804  0.106778  1
  P  P12  1  0.698903  0.245233  0.554104  1
  P  P13  1  0.214062  0.238665  0.068577  1
  O  O14  1  0.400849  0.908190  0.616671  1
  O  O15  1  0.902320  0.907687  0.107531  1
  O  O16  1  0.285215  0.863314  0.022063  1
  O  O17  1  0.810633  0.886493  0.560267  1
  O  O18  1  0.726774  0.811857  0.784545  1
  O  O19  1  0.227837  0.790647  0.289780  1
  O  O20  1  0.655474  0.709249  0.251139  1
  O  O21  1  0.119369  0.665443  0.707639  1
  O  O22  1  0.587650  0.648297  0.911146  1
  O  O23  1  0.107312  0.627757  0.428570  1
  O  O24  1  0.463716  0.648187  0.426140  1
  O  O25  1  0.931472  0.642525  0.896412  1
  O  O26  1  0.235880  0.546224  0.934090  1
  O  O27  1  0.781610  0.567931  0.458101  1
  O  O28  1  0.764120  0.453776  0.065910  1
  O  O29  1  0.218390  0.432069  0.541899  1
  O  O30  1  0.536284  0.351813  0.573860  1
  O  O31  1  0.068528  0.357475  0.103588  1
  O  O32  1  0.412350  0.351703  0.088854  1
  O  O33  1  0.892688  0.372243  0.571430  1
  O  O34  1  0.344526  0.290751  0.748861  1
  O  O35  1  0.880631  0.334557  0.292361  1
  O  O36  1  0.273226  0.188143  0.215455  1
  O  O37  1  0.772163  0.209353  0.710220  1
  O  O38  1  0.714785  0.136686  0.977937  1
  O  O39  1  0.189367  0.113507  0.439733  1
  O  O40  1  0.599151  0.091810  0.383329  1
  O  O41  1  0.097680  0.092313  0.892469  1
