# generated using pymatgen
data_Li6Ti3P8O29
_symmetry_space_group_name_H-M   'P 1'
_cell_length_a   9.84016422
_cell_length_b   9.84339411
_cell_length_c   13.89600716
_cell_angle_alpha   89.57860604
_cell_angle_beta   89.65853713
_cell_angle_gamma   60.28263105
_symmetry_Int_Tables_number   1
_chemical_formula_structural   Li6Ti3P8O29
_chemical_formula_sum   'Li12 Ti6 P16 O58'
_cell_volume   1168.91901382
_cell_formula_units_Z   2
loop_
 _symmetry_equiv_pos_site_id
 _symmetry_equiv_pos_as_xyz
  1  'x, y, z'
loop_
 _atom_site_type_symbol
 _atom_site_label
 _atom_site_symmetry_multiplicity
 _atom_site_fract_x
 _atom_site_fract_y
 _atom_site_fract_z
 _atom_site_occupancy
  Li  Li0  1  0.014447  0.031549  0.503052  1
  Li  Li1  1  0.000307  0.999922  0.999912  1
  Li  Li2  1  0.088462  0.676036  0.062378  1
  Li  Li3  1  0.328940  0.328416  0.886164  1
  Li  Li4  1  0.236373  0.663968  0.559941  1
  Li  Li5  1  0.661621  0.100150  0.561284  1
  Li  Li6  1  0.337572  0.765844  0.941765  1
  Li  Li7  1  0.672886  0.233468  0.062338  1
  Li  Li8  1  0.335538  0.906364  0.436478  1
  Li  Li9  1  0.765802  0.336352  0.439118  1
  Li  Li10  1  0.902095  0.336141  0.938026  1
  Li  Li11  1  0.900578  0.766455  0.439680  1
  Ti  Ti12  1  0.003328  0.429948  0.744394  1
  Ti  Ti13  1  0.996310  0.561056  0.249813  1
  Ti  Ti14  1  0.434757  0.004212  0.243676  1
  Ti  Ti15  1  0.568119  0.993034  0.753420  1
  Ti  Ti16  1  0.435232  0.567318  0.748411  1
  Ti  Ti17  1  0.563335  0.437190  0.251591  1
  P  P18  1  0.084200  0.218765  0.339435  1
  P  P19  1  0.219723  0.085008  0.840609  1
  P  P20  1  0.091035  0.684772  0.846404  1
  P  P21  1  0.332964  0.337846  0.127246  1
  P  P22  1  0.337878  0.332978  0.626786  1
  P  P23  1  0.223698  0.686663  0.343089  1
  P  P24  1  0.312303  0.774967  0.158428  1
  P  P25  1  0.687907  0.084053  0.345559  1
  P  P26  1  0.308589  0.917712  0.653001  1
  P  P27  1  0.682387  0.224679  0.842775  1
  P  P28  1  0.774255  0.311193  0.657769  1
  P  P29  1  0.669847  0.660356  0.872919  1
  P  P30  1  0.663829  0.669545  0.372577  1
  P  P31  1  0.913472  0.309293  0.153067  1
  P  P32  1  0.779846  0.917095  0.158285  1
  P  P33  1  0.916595  0.774418  0.660156  1
  O  O34  1  0.009906  0.196458  0.241004  1
  O  O35  1  0.986317  0.229371  0.060132  1
  O  O36  1  0.080219  0.254051  0.842739  1
  O  O37  1  0.196612  0.013959  0.741222  1
  O  O38  1  0.225037  0.990320  0.560327  1
  O  O39  1  0.253584  0.082500  0.340471  1
  O  O40  1  0.079413  0.377587  0.329496  1
  O  O41  1  0.193667  0.330624  0.675389  1
  O  O42  1  0.102482  0.523743  0.832714  1
  O  O43  1  0.005223  0.773266  0.570325  1
  O  O44  1  0.002150  0.792802  0.753463  1
  O  O45  1  0.081212  0.661515  0.342960  1
  O  O46  1  0.329181  0.194022  0.171707  1
  O  O47  1  0.371848  0.095704  0.832128  1
  O  O48  1  0.186301  0.489566  0.166052  1
  O  O49  1  0.335844  0.339378  0.018853  1
  O  O50  1  0.336402  0.340785  0.519543  1
  O  O51  1  0.329878  0.486722  0.668717  1
  O  O52  1  0.533644  0.085226  0.329597  1
  O  O53  1  0.488788  0.187208  0.667605  1
  O  O54  1  0.258831  0.662012  0.841296  1
  O  O55  1  0.201411  0.794560  0.249950  1
  O  O56  1  0.225386  0.773844  0.068964  1
  O  O57  1  0.226276  0.774023  0.431826  1
  O  O58  1  0.376781  0.531264  0.329033  1
  O  O59  1  0.485996  0.331085  0.166074  1
  O  O60  1  0.334406  0.748809  0.661060  1
  O  O61  1  0.521163  0.373920  0.830294  1
  O  O62  1  0.657549  0.083031  0.840452  1
  O  O63  1  0.214302  0.986826  0.921948  1
  O  O64  1  0.791738  0.010888  0.076251  1
  O  O65  1  0.802086  0.991868  0.257095  1
  O  O66  1  0.340416  0.913956  0.162000  1
  O  O67  1  0.466907  0.620604  0.172748  1
  O  O68  1  0.662992  0.251992  0.342955  1
  O  O69  1  0.519027  0.663589  0.830280  1
  O  O70  1  0.620745  0.465430  0.671111  1
  O  O71  1  0.775719  0.222817  0.568294  1
  O  O72  1  0.769543  0.229560  0.930926  1
  O  O73  1  0.791243  0.204581  0.750497  1
  O  O74  1  0.744832  0.336589  0.162266  1
  O  O75  1  0.513224  0.813186  0.331230  1
  O  O76  1  0.462331  0.918067  0.669709  1
  O  O77  1  0.672939  0.514824  0.332067  1
  O  O78  1  0.662847  0.659459  0.980072  1
  O  O79  1  0.667362  0.666180  0.480236  1
  O  O80  1  0.817546  0.511852  0.832503  1
  O  O81  1  0.622586  0.919403  0.168115  1
  O  O82  1  0.666600  0.807896  0.825482  1
  O  O83  1  0.915192  0.337240  0.661100  1
  O  O84  1  0.988834  0.209379  0.421683  1
  O  O85  1  0.912017  0.465487  0.169769  1
  O  O86  1  0.810634  0.675905  0.329920  1
  O  O87  1  0.912881  0.621228  0.673972  1
  O  O88  1  0.749897  0.917240  0.660324  1
  O  O89  1  0.772586  0.999224  0.436865  1
  O  O90  1  0.917004  0.746929  0.159086  1
  O  O91  1  0.010805  0.771476  0.936289  1
