# generated using pymatgen
data_TiFe(PO4)2
_symmetry_space_group_name_H-M   'P 1'
_cell_length_a   8.52223970
_cell_length_b   8.52223970
_cell_length_c   8.52223970
_cell_angle_alpha   61.42867012
_cell_angle_beta   61.42867012
_cell_angle_gamma   61.42867012
_symmetry_Int_Tables_number   1
_chemical_formula_structural   TiFe(PO4)2
_chemical_formula_sum   'Ti3 Fe3 P6 O24'
_cell_volume   451.71250523
_cell_formula_units_Z   3
loop_
 _symmetry_equiv_pos_site_id
 _symmetry_equiv_pos_as_xyz
  1  'x, y, z'
loop_
 _atom_site_type_symbol
 _atom_site_label
 _atom_site_symmetry_multiplicity
 _atom_site_fract_x
 _atom_site_fract_y
 _atom_site_fract_z
 _atom_site_occupancy
  Ti  Ti0  1  0.643188  0.643188  0.643188  1
  Ti  Ti1  1  0.858654  0.858654  0.858654  1
  Ti  Ti2  1  0.355922  0.355922  0.355922  1
  Fe  Fe3  1  0.003328  0.003328  0.003328  1
  Fe  Fe4  1  0.142103  0.142103  0.142103  1
  Fe  Fe5  1  0.501133  0.501133  0.501133  1
  P  P6  1  0.956108  0.246870  0.542144  1
  P  P7  1  0.542144  0.956108  0.246870  1
  P  P8  1  0.246870  0.542144  0.956108  1
  P  P9  1  0.747982  0.459105  0.043450  1
  P  P10  1  0.459105  0.043450  0.747982  1
  P  P11  1  0.043450  0.747982  0.459105  1
  O  O12  1  0.496026  0.120219  0.313356  1
  O  O13  1  0.313356  0.496026  0.120219  1
  O  O14  1  0.120219  0.313356  0.496026  1
  O  O15  1  0.943334  0.091129  0.741504  1
  O  O16  1  0.987311  0.183148  0.390420  1
  O  O17  1  0.759814  0.408456  0.566370  1
  O  O18  1  0.741504  0.943334  0.091129  1
  O  O19  1  0.566370  0.759814  0.408456  1
  O  O20  1  0.815418  0.620202  0.998934  1
  O  O21  1  0.408456  0.566370  0.759814  1
  O  O22  1  0.901959  0.266227  0.051542  1
  O  O23  1  0.620202  0.998934  0.815418  1
  O  O24  1  0.390420  0.987311  0.183148  1
  O  O25  1  0.091129  0.741504  0.943334  1
  O  O26  1  0.587250  0.448054  0.238745  1
  O  O27  1  0.183148  0.390420  0.987311  1
  O  O28  1  0.448054  0.238745  0.587250  1
  O  O29  1  0.266227  0.051542  0.901959  1
  O  O30  1  0.238745  0.587250  0.448054  1
  O  O31  1  0.998934  0.815418  0.620202  1
  O  O32  1  0.051542  0.901959  0.266227  1
  O  O33  1  0.886357  0.670523  0.513724  1
  O  O34  1  0.670523  0.513724  0.886357  1
  O  O35  1  0.513724  0.886357  0.670523  1
