# generated using pymatgen
data_Mn6O5F7
_symmetry_space_group_name_H-M   'P 1'
_cell_length_a   4.83477291
_cell_length_b   4.83477291
_cell_length_c   9.31959508
_cell_angle_alpha   90.00000000
_cell_angle_beta   90.00000000
_cell_angle_gamma   97.75320535
_symmetry_Int_Tables_number   1
_chemical_formula_structural   Mn6O5F7
_chemical_formula_sum   'Mn6 O5 F7'
_cell_volume   215.85433670
_cell_formula_units_Z   1
loop_
 _symmetry_equiv_pos_site_id
 _symmetry_equiv_pos_as_xyz
  1  'x, y, z'
loop_
 _atom_site_type_symbol
 _atom_site_label
 _atom_site_symmetry_multiplicity
 _atom_site_fract_x
 _atom_site_fract_y
 _atom_site_fract_z
 _atom_site_occupancy
  Mn  Mn0  1  0.995590  0.995590  0.834444  1
  Mn  Mn1  1  0.995590  0.995590  0.165556  1
  Mn  Mn2  1  0.022531  0.022531  0.500000  1
  Mn  Mn3  1  0.493793  0.493793  0.675365  1
  Mn  Mn4  1  0.496753  0.496753  1.000000  1
  Mn  Mn5  1  0.493793  0.493793  0.324635  1
  O  O6  1  0.297776  0.297776  0.836402  1
  O  O7  1  0.297776  0.297776  0.163598  1
  O  O8  1  0.319733  0.319733  0.500000  1
  O  O9  1  0.692436  0.692436  0.835228  1
  O  O10  1  0.692436  0.692436  0.164772  1
  F  F11  1  0.809783  0.184642  1.000000  1
  F  F12  1  0.810830  0.190982  0.334277  1
  F  F13  1  0.810830  0.190982  0.665723  1
  F  F14  1  0.703742  0.703742  0.500000  1
  F  F15  1  0.184642  0.809783  0.000000  1
  F  F16  1  0.190982  0.810830  0.334277  1
  F  F17  1  0.190982  0.810830  0.665723  1
