# generated using pymatgen
data_Li2MnFe(BO3)2
_symmetry_space_group_name_H-M   'P 1'
_cell_length_a   8.25522897
_cell_length_b   3.16563150
_cell_length_c   16.51210201
_cell_angle_alpha   90.00000000
_cell_angle_beta   120.02042728
_cell_angle_gamma   90.00000000
_symmetry_Int_Tables_number   1
_chemical_formula_structural   Li2MnFe(BO3)2
_chemical_formula_sum   'Li6 Mn3 Fe3 B6 O18'
_cell_volume   373.62252024
_cell_formula_units_Z   3
loop_
 _symmetry_equiv_pos_site_id
 _symmetry_equiv_pos_as_xyz
  1  'x, y, z'
loop_
 _atom_site_type_symbol
 _atom_site_label
 _atom_site_symmetry_multiplicity
 _atom_site_fract_x
 _atom_site_fract_y
 _atom_site_fract_z
 _atom_site_occupancy
  Li  Li0  1  0.697010  0.500000  0.989826  1
  Li  Li1  1  0.019886  0.500000  0.359198  1
  Li  Li2  1  0.285254  0.500000  0.650749  1
  Li  Li3  1  0.699861  0.500000  0.493075  1
  Li  Li4  1  0.014394  0.500000  0.856320  1
  Li  Li5  1  0.283584  0.500000  0.150693  1
  Mn  Mn6  1  0.988469  0.000000  0.179822  1
  Mn  Mn7  1  0.370855  0.000000  0.005201  1
  Mn  Mn8  1  0.640072  0.000000  0.314366  1
  Fe  Fe9  1  0.368459  0.000000  0.504897  1
  Fe  Fe10  1  0.640472  0.000000  0.816135  1
  Fe  Fe11  1  0.991808  0.000000  0.679555  1
  B  B12  1  0.666518  0.500000  0.666795  1
  B  B13  1  0.999275  0.000000  0.998770  1
  B  B14  1  0.333432  0.500000  0.334535  1
  B  B15  1  0.666820  0.500000  0.166678  1
  B  B16  1  0.000989  0.000000  0.501141  1
  B  B17  1  0.332966  0.500000  0.832176  1
  O  O18  1  0.419680  0.500000  0.431497  1
  O  O19  1  0.744354  0.500000  0.763566  1
  O  O20  1  0.472552  0.500000  0.608879  1
  O  O21  1  0.139747  0.500000  0.280521  1
  O  O22  1  0.805042  0.000000  0.958373  1
  O  O23  1  0.776751  0.500000  0.124578  1
  O  O24  1  0.442429  0.500000  0.789975  1
  O  O25  1  0.084186  0.000000  0.445468  1
  O  O26  1  0.112664  0.000000  0.598053  1
  O  O27  1  0.418246  0.500000  0.929050  1
  O  O28  1  0.750873  0.500000  0.263742  1
  O  O29  1  0.472968  0.500000  0.111681  1
  O  O30  1  0.138890  0.500000  0.777910  1
  O  O31  1  0.807373  0.000000  0.460423  1
  O  O32  1  0.782154  0.500000  0.627809  1
  O  O33  1  0.440247  0.500000  0.291011  1
  O  O34  1  0.078443  0.000000  0.941717  1
  O  O35  1  0.113276  0.000000  0.095810  1
