# generated using pymatgen
data_CaB3H7O9
_symmetry_space_group_name_H-M   'P 1'
_cell_length_a   6.52211907
_cell_length_b   6.67307665
_cell_length_c   8.43280493
_cell_angle_alpha   86.77136480
_cell_angle_beta   89.31108453
_cell_angle_gamma   78.21790273
_symmetry_Int_Tables_number   1
_chemical_formula_structural   CaB3H7O9
_chemical_formula_sum   'Ca2 B6 H14 O18'
_cell_volume   358.71466348
_cell_formula_units_Z   2
loop_
 _symmetry_equiv_pos_site_id
 _symmetry_equiv_pos_as_xyz
  1  'x, y, z'
loop_
 _atom_site_type_symbol
 _atom_site_label
 _atom_site_symmetry_multiplicity
 _atom_site_fract_x
 _atom_site_fract_y
 _atom_site_fract_z
 _atom_site_occupancy
  Ca  Ca0  1  0.755371  0.011371  0.376343  1
  Ca  Ca1  1  0.244629  0.988629  0.623657  1
  B  B2  1  0.514832  0.316226  0.798855  1
  B  B3  1  0.485168  0.683774  0.201145  1
  B  B4  1  0.834150  0.287835  0.632044  1
  B  B5  1  0.165850  0.712165  0.367956  1
  B  B6  1  0.300686  0.039819  0.264645  1
  B  B7  1  0.699314  0.960181  0.735355  1
  H  H8  1  0.349109  0.569190  0.899581  1
  H  H9  1  0.650891  0.430810  0.100419  1
  H  H10  1  0.850824  0.457193  0.420800  1
  H  H11  1  0.149176  0.542807  0.579200  1
  H  H12  1  0.356209  0.317639  0.349361  1
  H  H13  1  0.643791  0.682361  0.650639  1
  H  H14  1  0.269600  0.252855  0.064717  1
  H  H15  1  0.730400  0.747145  0.935283  1
  H  H16  1  0.052775  0.373243  0.779407  1
  H  H17  1  0.947225  0.626757  0.220593  1
  H  H18  1  0.772904  0.050374  0.029563  1
  H  H19  1  0.227096  0.949626  0.970437  1
  H  H20  1  0.938533  0.165744  0.103838  1
  H  H21  1  0.061467  0.834256  0.896162  1
  O  O22  1  0.672185  0.403880  0.735681  1
  O  O23  1  0.327815  0.596120  0.264319  1
  O  O24  1  0.354256  0.421231  0.890276  1
  O  O25  1  0.645744  0.578769  0.109724  1
  O  O26  1  0.507875  0.113953  0.777722  1
  O  O27  1  0.492125  0.886047  0.222278  1
  O  O28  1  0.795423  0.337616  0.462502  1
  O  O29  1  0.204577  0.662384  0.537498  1
  O  O30  1  0.851298  0.061992  0.652376  1
  O  O31  1  0.148702  0.938008  0.347624  1
  O  O32  1  0.380777  0.169846  0.378984  1
  O  O33  1  0.619223  0.830154  0.621016  1
  O  O34  1  0.787814  0.152858  0.107207  1
  O  O35  1  0.212186  0.847142  0.892793  1
  O  O36  1  0.198922  0.152373  0.120918  1
  O  O37  1  0.801078  0.847627  0.879082  1
  O  O38  1  0.042978  0.333476  0.670665  1
  O  O39  1  0.957022  0.666524  0.329335  1
