# generated using pymatgen
data_K2MgH8(CO5)2
_symmetry_space_group_name_H-M   'P 1'
_cell_length_a   6.94821850
_cell_length_b   6.26948416
_cell_length_c   12.25888511
_cell_angle_alpha   90.00000000
_cell_angle_beta   113.44882891
_cell_angle_gamma   90.00000000
_symmetry_Int_Tables_number   1
_chemical_formula_structural   K2MgH8(CO5)2
_chemical_formula_sum   'K4 Mg2 H16 C4 O20'
_cell_volume   489.91696964
_cell_formula_units_Z   2
loop_
 _symmetry_equiv_pos_site_id
 _symmetry_equiv_pos_as_xyz
  1  'x, y, z'
loop_
 _atom_site_type_symbol
 _atom_site_label
 _atom_site_symmetry_multiplicity
 _atom_site_fract_x
 _atom_site_fract_y
 _atom_site_fract_z
 _atom_site_occupancy
  K  K0  1  0.766573  0.851274  0.182596  1
  K  K1  1  0.233427  0.351274  0.317404  1
  K  K2  1  0.766573  0.648726  0.682596  1
  K  K3  1  0.233427  0.148726  0.817404  1
  Mg  Mg4  1  0.000000  0.500000  0.000000  1
  Mg  Mg5  1  0.000000  0.000000  0.500000  1
  H  H6  1  0.302378  0.176202  0.076876  1
  H  H7  1  0.791616  0.199435  0.021579  1
  H  H8  1  0.423976  0.395610  0.113403  1
  H  H9  1  0.803947  0.341586  0.137833  1
  H  H10  1  0.576024  0.895610  0.386597  1
  H  H11  1  0.196053  0.841586  0.362167  1
  H  H12  1  0.697622  0.676202  0.423124  1
  H  H13  1  0.208384  0.699435  0.478421  1
  H  H14  1  0.791616  0.300565  0.521579  1
  H  H15  1  0.302378  0.323798  0.576876  1
  H  H16  1  0.803947  0.158414  0.637833  1
  H  H17  1  0.423976  0.104390  0.613403  1
  H  H18  1  0.196053  0.658414  0.862167  1
  H  H19  1  0.576024  0.604390  0.886597  1
  H  H20  1  0.208384  0.800565  0.978421  1
  H  H21  1  0.697622  0.823798  0.923124  1
  C  C22  1  0.256637  0.849494  0.175913  1
  C  C23  1  0.743363  0.349494  0.324087  1
  C  C24  1  0.256637  0.650506  0.675913  1
  C  C25  1  0.743363  0.150506  0.824087  1
  O  O26  1  0.289940  0.333224  0.056530  1
  O  O27  1  0.331160  0.919246  0.099903  1
  O  O28  1  0.889098  0.283247  0.094267  1
  O  O29  1  0.121964  0.694230  0.147615  1
  O  O30  1  0.682357  0.437229  0.219392  1
  O  O31  1  0.317643  0.937229  0.280608  1
  O  O32  1  0.878036  0.194230  0.352385  1
  O  O33  1  0.668840  0.419246  0.400097  1
  O  O34  1  0.710060  0.833224  0.443470  1
  O  O35  1  0.110902  0.783247  0.405733  1
  O  O36  1  0.889098  0.216753  0.594267  1
  O  O37  1  0.289940  0.166776  0.556530  1
  O  O38  1  0.331160  0.580754  0.599903  1
  O  O39  1  0.121964  0.805770  0.647615  1
  O  O40  1  0.682357  0.062771  0.719392  1
  O  O41  1  0.317643  0.562771  0.780608  1
  O  O42  1  0.878036  0.305770  0.852385  1
  O  O43  1  0.110902  0.716753  0.905733  1
  O  O44  1  0.668840  0.080754  0.900097  1
  O  O45  1  0.710060  0.666776  0.943470  1
