# generated using pymatgen
data_LiCo3OF5
_symmetry_space_group_name_H-M   'P 1'
_cell_length_a   5.23410992
_cell_length_b   5.26802705
_cell_length_c   5.56946847
_cell_angle_alpha   117.02176914
_cell_angle_beta   90.79364914
_cell_angle_gamma   119.43081773
_symmetry_Int_Tables_number   1
_chemical_formula_structural   LiCo3OF5
_chemical_formula_sum   'Li1 Co3 O1 F5'
_cell_volume   113.45046276
_cell_formula_units_Z   1
loop_
 _symmetry_equiv_pos_site_id
 _symmetry_equiv_pos_as_xyz
  1  'x, y, z'
loop_
 _atom_site_type_symbol
 _atom_site_label
 _atom_site_symmetry_multiplicity
 _atom_site_fract_x
 _atom_site_fract_y
 _atom_site_fract_z
 _atom_site_occupancy
  Li  Li0  1  0.316744  0.163739  0.563866  1
  Co  Co1  1  0.705215  0.337833  0.964031  1
  Co  Co2  1  0.271508  0.625175  0.061580  1
  Co  Co3  1  0.713449  0.879205  0.427401  1
  O  O4  1  0.808836  0.253946  0.238494  1
  F  F5  1  0.517968  0.452718  0.753587  1
  F  F6  1  0.189612  0.936412  0.233046  1
  F  F7  1  0.794831  0.038967  0.752641  1
  F  F8  1  0.193009  0.757232  0.740848  1
  F  F9  1  0.488829  0.554772  0.264505  1
