# generated using pymatgen
data_Li2VP2O7
_symmetry_space_group_name_H-M   'P 1'
_cell_length_a   6.64091115
_cell_length_b   9.31818432
_cell_length_c   10.42528881
_cell_angle_alpha   113.49660495
_cell_angle_beta   88.44156158
_cell_angle_gamma   106.38309194
_symmetry_Int_Tables_number   1
_chemical_formula_structural   Li2VP2O7
_chemical_formula_sum   'Li8 V4 P8 O28'
_cell_volume   564.94462067
_cell_formula_units_Z   4
loop_
 _symmetry_equiv_pos_site_id
 _symmetry_equiv_pos_as_xyz
  1  'x, y, z'
loop_
 _atom_site_type_symbol
 _atom_site_label
 _atom_site_symmetry_multiplicity
 _atom_site_fract_x
 _atom_site_fract_y
 _atom_site_fract_z
 _atom_site_occupancy
  Li  Li0  1  0.050045  0.211575  0.519331  1
  Li  Li1  1  0.643848  0.076089  0.621072  1
  Li  Li2  1  0.599194  0.509170  0.973045  1
  Li  Li3  1  0.163090  0.108383  0.126713  1
  Li  Li4  1  0.167415  0.486639  0.031533  1
  Li  Li5  1  0.865184  0.892402  0.891506  1
  Li  Li6  1  0.346914  0.922923  0.378642  1
  Li  Li7  1  0.931600  0.829078  0.500105  1
  V  V8  1  0.364746  0.501694  0.739951  1
  V  V9  1  0.723547  0.098202  0.225608  1
  V  V10  1  0.282409  0.892616  0.771715  1
  V  V11  1  0.625555  0.489887  0.251728  1
  P  P12  1  0.076728  0.179411  0.797123  1
  P  P13  1  0.698186  0.189205  0.945439  1
  P  P14  1  0.557022  0.289132  0.461516  1
  P  P15  1  0.121261  0.446460  0.297459  1
  P  P16  1  0.868650  0.540829  0.698580  1
  P  P17  1  0.437953  0.706516  0.532840  1
  P  P18  1  0.309259  0.802469  0.052774  1
  P  P19  1  0.927368  0.807643  0.196400  1
  O  O20  1  0.100597  0.057927  0.855732  1
  O  O21  1  0.568444  0.084895  0.803509  1
  O  O22  1  0.279135  0.317565  0.820983  1
  O  O23  1  0.961599  0.091961  0.647246  1
  O  O24  1  0.028396  0.448162  0.689591  1
  O  O25  1  0.928313  0.279565  0.905619  1
  O  O26  1  0.630790  0.142361  0.456890  1
  O  O27  1  0.037312  0.268635  0.283698  1
  O  O28  1  0.359053  0.301343  0.536639  1
  O  O29  1  0.380609  0.654206  0.960599  1
  O  O30  1  0.538370  0.275162  0.309226  1
  O  O31  1  0.695223  0.520638  0.795983  1
  O  O32  1  0.741037  0.082877  0.015571  1
  O  O33  1  0.248470  0.542476  0.454113  1
  O  O34  1  0.743900  0.455752  0.540285  1
  O  O35  1  0.269212  0.908586  0.982190  1
  O  O36  1  0.287929  0.462706  0.193772  1
  O  O37  1  0.457788  0.713770  0.682840  1
  O  O38  1  0.620390  0.331935  0.037307  1
  O  O39  1  0.633716  0.694779  0.455092  1
  O  O40  1  0.965541  0.721410  0.724255  1
  O  O41  1  0.367338  0.856499  0.543395  1
  O  O42  1  0.082119  0.709391  0.092319  1
  O  O43  1  0.955233  0.528188  0.295442  1
  O  O44  1  0.037354  0.892566  0.346570  1
  O  O45  1  0.720319  0.674020  0.170867  1
  O  O46  1  0.439952  0.906321  0.194247  1
  O  O47  1  0.910737  0.931796  0.137697  1
