# generated using pymatgen
data_Sr3(AlSn)2
_symmetry_space_group_name_H-M   'P 1'
_cell_length_a   10.57473321
_cell_length_b   10.57473321
_cell_length_c   10.57473321
_cell_angle_alpha   155.38474938
_cell_angle_beta   152.74733238
_cell_angle_gamma   37.04894699
_symmetry_Int_Tables_number   1
_chemical_formula_structural   Sr3(AlSn)2
_chemical_formula_sum   'Sr3 Al2 Sn2'
_cell_volume   225.22881068
_cell_formula_units_Z   1
loop_
 _symmetry_equiv_pos_site_id
 _symmetry_equiv_pos_as_xyz
  1  'x, y, z'
loop_
 _atom_site_type_symbol
 _atom_site_label
 _atom_site_symmetry_multiplicity
 _atom_site_fract_x
 _atom_site_fract_y
 _atom_site_fract_z
 _atom_site_occupancy
  Sr  Sr0  1  0.182346  0.182346  0.000000  1
  Sr  Sr1  1  0.817654  0.817654  0.000000  1
  Sr  Sr2  1  0.000000  0.500000  0.500000  1
  Al  Al3  1  0.436636  0.936636  0.500000  1
  Al  Al4  1  0.563364  0.063364  0.500000  1
  Sn  Sn5  1  0.358385  0.358385  0.000000  1
  Sn  Sn6  1  0.641615  0.641615  0.000000  1
