# generated using pymatgen
data_K7P6H2NO22
_symmetry_space_group_name_H-M   'P 1'
_cell_length_a   6.61529037
_cell_length_b   9.85941850
_cell_length_c   9.89909793
_cell_angle_alpha   75.86469356
_cell_angle_beta   72.86518593
_cell_angle_gamma   73.62889641
_symmetry_Int_Tables_number   1
_chemical_formula_structural   K7P6H2NO22
_chemical_formula_sum   'K7 P6 H2 N1 O22'
_cell_volume   582.75747706
_cell_formula_units_Z   1
loop_
 _symmetry_equiv_pos_site_id
 _symmetry_equiv_pos_as_xyz
  1  'x, y, z'
loop_
 _atom_site_type_symbol
 _atom_site_label
 _atom_site_symmetry_multiplicity
 _atom_site_fract_x
 _atom_site_fract_y
 _atom_site_fract_z
 _atom_site_occupancy
  K  K0  1  0.718211  0.549752  0.162653  1
  K  K1  1  0.500845  0.999285  0.999953  1
  K  K2  1  0.755297  0.151462  0.554509  1
  K  K3  1  0.324858  0.283962  0.273918  1
  K  K4  1  0.286125  0.447455  0.837892  1
  K  K5  1  0.249852  0.844508  0.445919  1
  K  K6  1  0.669247  0.721453  0.734194  1
  P  P7  1  0.180180  0.699066  0.088691  1
  P  P8  1  0.073243  0.857636  0.817502  1
  P  P9  1  0.185160  0.138728  0.702609  1
  P  P10  1  0.823663  0.297997  0.911595  1
  P  P11  1  0.930910  0.137918  0.183650  1
  P  P12  1  0.818725  0.857959  0.298467  1
  H  H13  1  0.455875  0.476521  0.469977  1
  H  H14  1  0.232184  0.541475  0.432941  1
  N  N15  1  0.824341  0.490248  0.526815  1
  O  O16  1  0.399396  0.734156  0.030167  1
  O  O17  1  0.012844  0.797556  0.988805  1
  O  O18  1  0.160616  0.546292  0.110619  1
  O  O19  1  0.063936  0.763935  0.237623  1
  O  O20  1  0.238949  0.744292  0.739977  1
  O  O21  1  0.860593  0.919897  0.775045  1
  O  O22  1  0.190709  0.984598  0.813607  1
  O  O23  1  0.193645  0.116809  0.555843  1
  O  O24  1  0.352824  0.200259  0.726411  1
  O  O25  1  0.941116  0.232288  0.762992  1
  O  O26  1  0.604086  0.262151  0.967381  1
  O  O27  1  0.842562  0.450617  0.888937  1
  O  O28  1  0.989348  0.199688  0.011987  1
  O  O29  1  0.764212  0.249117  0.261999  1
  O  O30  1  0.145954  0.075594  0.223302  1
  O  O31  1  0.815231  0.010620  0.186276  1
  O  O32  1  0.651546  0.795906  0.275890  1
  O  O33  1  0.809870  0.881482  0.445069  1
  O  O34  1  0.387708  0.509767  0.389205  1
  O  O35  1  0.627852  0.505188  0.601100  1
  O  O36  1  0.951346  0.550320  0.553332  1
  O  O37  1  0.889040  0.416671  0.428137  1
