# generated using pymatgen
data_Li4Nb3TeO12
_symmetry_space_group_name_H-M   'P 1'
_cell_length_a   5.23750169
_cell_length_b   5.59024722
_cell_length_c   7.67119577
_cell_angle_alpha   84.81913602
_cell_angle_beta   89.93668186
_cell_angle_gamma   89.93621565
_symmetry_Int_Tables_number   1
_chemical_formula_structural   Li4Nb3TeO12
_chemical_formula_sum   'Li4 Nb3 Te1 O12'
_cell_volume   223.68654995
_cell_formula_units_Z   1
loop_
 _symmetry_equiv_pos_site_id
 _symmetry_equiv_pos_as_xyz
  1  'x, y, z'
loop_
 _atom_site_type_symbol
 _atom_site_label
 _atom_site_symmetry_multiplicity
 _atom_site_fract_x
 _atom_site_fract_y
 _atom_site_fract_z
 _atom_site_occupancy
  Li  Li0  1  0.498634  0.006447  0.748891  1
  Li  Li1  1  0.500689  0.000545  0.252052  1
  Li  Li2  1  0.997806  0.497302  0.747768  1
  Li  Li3  1  0.001395  0.502744  0.255705  1
  Nb  Nb4  1  0.498054  0.426658  0.973424  1
  Nb  Nb5  1  0.499214  0.442568  0.471744  1
  Nb  Nb6  1  0.002093  0.943376  0.463406  1
  Te  Te7  1  0.002112  0.926846  0.963886  1
  O  O8  1  0.194444  0.224403  0.882558  1
  O  O9  1  0.318471  0.094063  0.511806  1
  O  O10  1  0.373278  0.400638  0.207039  1
  O  O11  1  0.694119  0.718044  0.387167  1
  O  O12  1  0.179521  0.592963  0.511930  1
  O  O13  1  0.132094  0.897854  0.209007  1
  O  O14  1  0.822621  0.587722  0.014935  1
  O  O15  1  0.314085  0.723418  0.886910  1
  O  O16  1  0.869403  0.899976  0.703818  1
  O  O17  1  0.672941  0.091639  0.014535  1
  O  O18  1  0.624801  0.399185  0.705360  1
  O  O19  1  0.804225  0.218812  0.385660  1
