# generated using pymatgen
data_Y2Bi2O7
_symmetry_space_group_name_H-M   'P 1'
_cell_length_a   6.05511388
_cell_length_b   6.05511388
_cell_length_c   5.88119337
_cell_angle_alpha   84.21393020
_cell_angle_beta   95.78606980
_cell_angle_gamma   73.87373393
_symmetry_Int_Tables_number   1
_chemical_formula_structural   Y2Bi2O7
_chemical_formula_sum   'Y2 Bi2 O7'
_cell_volume   204.21001453
_cell_formula_units_Z   1
loop_
 _symmetry_equiv_pos_site_id
 _symmetry_equiv_pos_as_xyz
  1  'x, y, z'
loop_
 _atom_site_type_symbol
 _atom_site_label
 _atom_site_symmetry_multiplicity
 _atom_site_fract_x
 _atom_site_fract_y
 _atom_site_fract_z
 _atom_site_occupancy
  Y  Y0  1  0.307548  0.307548  0.000000  1
  Y  Y1  1  0.692452  0.692452  0.000000  1
  Bi  Bi2  1  0.741126  0.258874  0.606432  1
  Bi  Bi3  1  0.258874  0.741126  0.393568  1
  O  O4  1  0.945505  0.413691  0.817573  1
  O  O5  1  0.586309  0.054495  0.817573  1
  O  O6  1  0.542599  0.457401  0.255071  1
  O  O7  1  1.000000  0.000000  0.500000  1
  O  O8  1  0.457401  0.542599  0.744929  1
  O  O9  1  0.054495  0.586309  0.182427  1
  O  O10  1  0.413691  0.945505  0.182427  1
