# generated using pymatgen
data_Cr4OF11
_symmetry_space_group_name_H-M   'P 1'
_cell_length_a   5.08376000
_cell_length_b   5.33189668
_cell_length_c   16.89481580
_cell_angle_alpha   88.26092981
_cell_angle_beta   98.29079468
_cell_angle_gamma   118.28907649
_symmetry_Int_Tables_number   1
_chemical_formula_structural   Cr4OF11
_chemical_formula_sum   'Cr8 O2 F22'
_cell_volume   398.66409863
_cell_formula_units_Z   2
loop_
 _symmetry_equiv_pos_site_id
 _symmetry_equiv_pos_as_xyz
  1  'x, y, z'
loop_
 _atom_site_type_symbol
 _atom_site_label
 _atom_site_symmetry_multiplicity
 _atom_site_fract_x
 _atom_site_fract_y
 _atom_site_fract_z
 _atom_site_occupancy
  Cr  Cr0  1  0.254373  0.643850  0.871588  1
  Cr  Cr1  1  0.250886  0.121848  0.373941  1
  Cr  Cr2  1  0.508414  0.738972  0.247082  1
  Cr  Cr3  1  0.490990  0.232811  0.753608  1
  Cr  Cr4  1  0.749193  0.870060  0.625653  1
  Cr  Cr5  1  0.744559  0.386420  0.128940  1
  Cr  Cr6  1  0.999654  0.497700  0.499952  1
  Cr  Cr7  1  0.001101  0.008333  0.999653  1
  O  O8  1  0.252536  0.938133  0.812586  1
  O  O9  1  0.685849  0.531887  0.218069  1
  F  F10  1  0.185598  0.784977  0.967163  1
  F  F11  1  0.248016  0.811353  0.437400  1
  F  F12  1  0.242162  0.319393  0.935638  1
  F  F13  1  0.319862  0.962472  0.281692  1
  F  F14  1  0.313846  0.657160  0.592875  1
  F  F15  1  0.316143  0.468242  0.782230  1
  F  F16  1  0.183765  0.593237  0.156514  1
  F  F17  1  0.186609  0.090776  0.658249  1
  F  F18  1  0.185825  0.279757  0.467449  1
  F  F19  1  0.686841  0.843272  0.906807  1
  F  F20  1  0.254451  0.437721  0.311651  1
  F  F21  1  0.738242  0.555668  0.689113  1
  F  F22  1  0.315197  0.157898  0.092965  1
  F  F23  1  0.814488  0.907320  0.341381  1
  F  F24  1  0.816512  0.408229  0.842607  1
  F  F25  1  0.814379  0.717952  0.531738  1
  F  F26  1  0.685513  0.342440  0.407041  1
  F  F27  1  0.688726  0.031571  0.719007  1
  F  F28  1  0.751654  0.689626  0.061995  1
  F  F29  1  0.753012  0.185404  0.563074  1
  F  F30  1  0.746189  0.063953  0.187062  1
  F  F31  1  0.815415  0.221564  0.035278  1
