# generated using pymatgen
data_CuNi4O5
_symmetry_space_group_name_H-M   'P 1'
_cell_length_a   12.29602131
_cell_length_b   12.29602131
_cell_length_c   5.15971616
_cell_angle_alpha   85.90129110
_cell_angle_beta   94.09870890
_cell_angle_gamma   166.07460927
_symmetry_Int_Tables_number   1
_chemical_formula_structural   CuNi4O5
_chemical_formula_sum   'Cu2 Ni8 O10'
_cell_volume   187.25217500
_cell_formula_units_Z   2
loop_
 _symmetry_equiv_pos_site_id
 _symmetry_equiv_pos_as_xyz
  1  'x, y, z'
loop_
 _atom_site_type_symbol
 _atom_site_label
 _atom_site_symmetry_multiplicity
 _atom_site_fract_x
 _atom_site_fract_y
 _atom_site_fract_z
 _atom_site_occupancy
  Cu  Cu0  1  0.099987  0.900013  0.699531  1
  Cu  Cu1  1  0.900013  0.099987  0.300469  1
  Ni  Ni2  1  0.799647  0.200353  0.600264  1
  Ni  Ni3  1  0.300505  0.699495  0.100083  1
  Ni  Ni4  1  0.399970  0.600030  0.799660  1
  Ni  Ni5  1  0.500000  0.500000  0.500000  1
  Ni  Ni6  1  0.000000  0.000000  0.000000  1
  Ni  Ni7  1  0.699495  0.300505  0.899917  1
  Ni  Ni8  1  0.600030  0.399970  0.200340  1
  Ni  Ni9  1  0.200353  0.799647  0.399736  1
  O  O10  1  0.249662  0.750338  0.751070  1
  O  O11  1  0.348940  0.651060  0.454263  1
  O  O12  1  0.849644  0.150356  0.945953  1
  O  O13  1  0.950560  0.049440  0.653318  1
  O  O14  1  0.750338  0.249662  0.248930  1
  O  O15  1  0.651060  0.348940  0.545737  1
  O  O16  1  0.548901  0.451099  0.853406  1
  O  O17  1  0.451099  0.548901  0.146594  1
  O  O18  1  0.150356  0.849644  0.054047  1
  O  O19  1  0.049440  0.950560  0.346682  1
