# generated using pymatgen
data_Sb4O5F2
_symmetry_space_group_name_H-M   'P 1'
_cell_length_a   10.94087826
_cell_length_b   5.62215541
_cell_length_c   14.12911780
_cell_angle_alpha   90.00000000
_cell_angle_beta   98.14768008
_cell_angle_gamma   90.00000000
_symmetry_Int_Tables_number   1
_chemical_formula_structural   Sb4O5F2
_chemical_formula_sum   'Sb16 O20 F8'
_cell_volume   860.32800729
_cell_formula_units_Z   4
loop_
 _symmetry_equiv_pos_site_id
 _symmetry_equiv_pos_as_xyz
  1  'x, y, z'
loop_
 _atom_site_type_symbol
 _atom_site_label
 _atom_site_symmetry_multiplicity
 _atom_site_fract_x
 _atom_site_fract_y
 _atom_site_fract_z
 _atom_site_occupancy
  Sb  Sb0  1  0.604618  0.638100  0.960241  1
  Sb  Sb1  1  0.267122  0.678702  0.906920  1
  Sb  Sb2  1  0.792696  0.270878  0.820726  1
  Sb  Sb3  1  0.416892  0.171530  0.774425  1
  Sb  Sb4  1  0.098827  0.230017  0.704356  1
  Sb  Sb5  1  0.643538  0.767277  0.690026  1
  Sb  Sb6  1  0.302434  0.681927  0.627387  1
  Sb  Sb7  1  0.934123  0.729075  0.575880  1
  Sb  Sb8  1  0.065877  0.229075  0.424120  1
  Sb  Sb9  1  0.697566  0.181927  0.372613  1
  Sb  Sb10  1  0.356462  0.267277  0.309974  1
  Sb  Sb11  1  0.901173  0.730017  0.295644  1
  Sb  Sb12  1  0.583108  0.671530  0.225575  1
  Sb  Sb13  1  0.207304  0.770878  0.179274  1
  Sb  Sb14  1  0.732878  0.178702  0.093080  1
  Sb  Sb15  1  0.395382  0.138100  0.039759  1
  O  O16  1  0.696812  0.311384  0.955500  1
  O  O17  1  0.392227  0.998231  0.899994  1
  O  O18  1  0.428539  0.492967  0.920550  1
  O  O19  1  0.674122  0.008872  0.792266  1
  O  O20  1  0.662828  0.520765  0.790874  1
  O  O21  1  0.254453  0.010331  0.711600  1
  O  O22  1  0.268218  0.464160  0.736201  1
  O  O23  1  0.463498  0.815269  0.705338  1
  O  O24  1  0.039926  0.020941  0.585906  1
  O  O25  1  0.075407  0.499996  0.603906  1
  O  O26  1  0.924593  0.999996  0.396094  1
  O  O27  1  0.960074  0.520941  0.414094  1
  O  O28  1  0.536502  0.315269  0.294662  1
  O  O29  1  0.731782  0.964160  0.263799  1
  O  O30  1  0.745547  0.510331  0.288400  1
  O  O31  1  0.337172  0.020765  0.209126  1
  O  O32  1  0.325878  0.508872  0.207734  1
  O  O33  1  0.571461  0.992967  0.079450  1
  O  O34  1  0.607773  0.498231  0.100006  1
  O  O35  1  0.303188  0.811384  0.044500  1
  F  F36  1  0.197846  0.361415  0.957087  1
  F  F37  1  0.920294  0.753011  0.718963  1
  F  F38  1  0.809247  0.279769  0.676047  1
  F  F39  1  0.418428  0.407700  0.595379  1
  F  F40  1  0.581572  0.907700  0.404621  1
  F  F41  1  0.190753  0.779769  0.323953  1
  F  F42  1  0.079706  0.253011  0.281037  1
  F  F43  1  0.802154  0.861415  0.042913  1
