# generated using pymatgen
data_LiV2(PO4)3
_symmetry_space_group_name_H-M   'P 1'
_cell_length_a   8.68360762
_cell_length_b   8.63004463
_cell_length_c   14.63168922
_cell_angle_alpha   90.00000000
_cell_angle_beta   125.19549396
_cell_angle_gamma   90.00000000
_symmetry_Int_Tables_number   1
_chemical_formula_structural   LiV2(PO4)3
_chemical_formula_sum   'Li4 V8 P12 O48'
_cell_volume   896.04715693
_cell_formula_units_Z   4
loop_
 _symmetry_equiv_pos_site_id
 _symmetry_equiv_pos_as_xyz
  1  'x, y, z'
loop_
 _atom_site_type_symbol
 _atom_site_label
 _atom_site_symmetry_multiplicity
 _atom_site_fract_x
 _atom_site_fract_y
 _atom_site_fract_z
 _atom_site_occupancy
  Li  Li0  1  0.324099  0.707434  0.238195  1
  Li  Li1  1  0.675901  0.207434  0.261805  1
  Li  Li2  1  0.324099  0.792566  0.738195  1
  Li  Li3  1  0.675901  0.292566  0.761805  1
  V  V4  1  0.365430  0.027352  0.113972  1
  V  V5  1  0.868823  0.964741  0.616738  1
  V  V6  1  0.131177  0.464741  0.883262  1
  V  V7  1  0.634570  0.527352  0.386028  1
  V  V8  1  0.365430  0.472648  0.613972  1
  V  V9  1  0.868823  0.535259  0.116738  1
  V  V10  1  0.131177  0.035259  0.383262  1
  V  V11  1  0.634570  0.972648  0.886028  1
  P  P12  1  0.536590  0.246634  0.504802  1
  P  P13  1  0.249193  0.386337  0.145186  1
  P  P14  1  0.964145  0.106613  0.853710  1
  P  P15  1  0.035855  0.606613  0.646290  1
  P  P16  1  0.750807  0.886337  0.354814  1
  P  P17  1  0.463410  0.746634  0.995198  1
  P  P18  1  0.536590  0.253366  0.004802  1
  P  P19  1  0.249193  0.113663  0.645186  1
  P  P20  1  0.964145  0.393387  0.353710  1
  P  P21  1  0.035855  0.893387  0.146290  1
  P  P22  1  0.750807  0.613663  0.854814  1
  P  P23  1  0.463410  0.753366  0.495198  1
  O  O24  1  0.644915  0.842948  0.574796  1
  O  O25  1  0.466145  0.664265  0.404489  1
  O  O26  1  0.219010  0.903973  0.150062  1
  O  O27  1  0.914967  0.599152  0.844435  1
  O  O28  1  0.555808  0.363653  0.429106  1
  O  O29  1  0.182523  0.430032  0.024638  1
  O  O30  1  0.326639  0.218042  0.171338  1
  O  O31  1  0.939053  0.994981  0.763608  1
  O  O32  1  0.717282  0.151272  0.565728  1
  O  O33  1  0.960826  0.278195  0.823230  1
  O  O34  1  0.142167  0.061562  0.966046  1
  O  O35  1  0.408309  0.502299  0.225271  1
  O  O36  1  0.591691  0.002299  0.274729  1
  O  O37  1  0.857833  0.561562  0.533954  1
  O  O38  1  0.039174  0.778195  0.676770  1
  O  O39  1  0.282718  0.651272  0.934272  1
  O  O40  1  0.060947  0.494981  0.736392  1
  O  O41  1  0.673361  0.718042  0.328662  1
  O  O42  1  0.817477  0.930032  0.475362  1
  O  O43  1  0.444192  0.863653  0.070894  1
  O  O44  1  0.085033  0.099152  0.655565  1
  O  O45  1  0.780990  0.403973  0.349938  1
  O  O46  1  0.533855  0.164265  0.095511  1
  O  O47  1  0.355085  0.342948  0.925204  1
  O  O48  1  0.644915  0.657052  0.074796  1
  O  O49  1  0.466145  0.835735  0.904489  1
  O  O50  1  0.219010  0.596027  0.650062  1
  O  O51  1  0.914967  0.900848  0.344435  1
  O  O52  1  0.555808  0.136347  0.929106  1
  O  O53  1  0.182523  0.069968  0.524638  1
  O  O54  1  0.326639  0.281958  0.671338  1
  O  O55  1  0.939053  0.505019  0.263608  1
  O  O56  1  0.717282  0.348728  0.065728  1
  O  O57  1  0.960826  0.221805  0.323230  1
  O  O58  1  0.142167  0.438438  0.466046  1
  O  O59  1  0.408309  0.997701  0.725271  1
  O  O60  1  0.591691  0.497701  0.774729  1
  O  O61  1  0.857833  0.938438  0.033954  1
  O  O62  1  0.039174  0.721805  0.176770  1
  O  O63  1  0.282718  0.848728  0.434272  1
  O  O64  1  0.060947  0.005019  0.236392  1
  O  O65  1  0.673361  0.781958  0.828662  1
  O  O66  1  0.817477  0.569968  0.975362  1
  O  O67  1  0.444192  0.636347  0.570894  1
  O  O68  1  0.085033  0.400848  0.155565  1
  O  O69  1  0.780990  0.096027  0.849938  1
  O  O70  1  0.533855  0.335735  0.595511  1
  O  O71  1  0.355085  0.157052  0.425204  1
