# generated using pymatgen
data_V3(O2F)2
_symmetry_space_group_name_H-M   'P 1'
_cell_length_a   4.69413453
_cell_length_b   5.63377304
_cell_length_c   7.66450092
_cell_angle_alpha   85.59539887
_cell_angle_beta   87.18235043
_cell_angle_gamma   87.16784584
_symmetry_Int_Tables_number   1
_chemical_formula_structural   V3(O2F)2
_chemical_formula_sum   'V6 O8 F4'
_cell_volume   201.63799199
_cell_formula_units_Z   2
loop_
 _symmetry_equiv_pos_site_id
 _symmetry_equiv_pos_as_xyz
  1  'x, y, z'
loop_
 _atom_site_type_symbol
 _atom_site_label
 _atom_site_symmetry_multiplicity
 _atom_site_fract_x
 _atom_site_fract_y
 _atom_site_fract_z
 _atom_site_occupancy
  V  V0  1  0.495277  0.829414  0.666063  1
  V  V1  1  0.524275  0.518358  0.008062  1
  V  V2  1  0.518311  0.181732  0.337411  1
  V  V3  1  0.994702  0.326718  0.658893  1
  V  V4  1  0.969940  0.652098  0.326499  1
  V  V5  1  0.993784  0.991851  0.004198  1
  O  O6  1  0.806250  0.373529  0.433279  1
  O  O7  1  0.799540  0.701560  0.104958  1
  O  O8  1  0.697822  0.210423  0.096553  1
  O  O9  1  0.690078  0.525689  0.776947  1
  O  O10  1  0.713952  0.859018  0.432376  1
  O  O11  1  0.307916  0.129453  0.567814  1
  O  O12  1  0.297640  0.483899  0.224877  1
  O  O13  1  0.302459  0.797983  0.900859  1
  F  F14  1  0.803019  0.027223  0.766397  1
  F  F15  1  0.198915  0.965723  0.236107  1
  F  F16  1  0.193096  0.295282  0.898087  1
  F  F17  1  0.193027  0.630048  0.560623  1
