# generated using pymatgen
data_Y2SeO2
_symmetry_space_group_name_H-M   'P 1'
_cell_length_a   6.67372119
_cell_length_b   6.67372119
_cell_length_c   6.67372119
_cell_angle_alpha   146.44924083
_cell_angle_beta   146.44924083
_cell_angle_gamma   48.17996911
_symmetry_Int_Tables_number   1
_chemical_formula_structural   Y2SeO2
_chemical_formula_sum   'Y2 Se1 O2'
_cell_volume   90.41574584
_cell_formula_units_Z   1
loop_
 _symmetry_equiv_pos_site_id
 _symmetry_equiv_pos_as_xyz
  1  'x, y, z'
loop_
 _atom_site_type_symbol
 _atom_site_label
 _atom_site_symmetry_multiplicity
 _atom_site_fract_x
 _atom_site_fract_y
 _atom_site_fract_z
 _atom_site_occupancy
  Y  Y0  1  0.343196  0.343196  0.000000  1
  Y  Y1  1  0.656804  0.656804  0.000000  1
  Se  Se2  1  0.000000  0.000000  0.000000  1
  O  O3  1  0.250000  0.750000  0.500000  1
  O  O4  1  0.750000  0.250000  0.500000  1
