# generated using pymatgen
data_Gd2HfO5
_symmetry_space_group_name_H-M   'P 1'
_cell_length_a   6.59035692
_cell_length_b   6.59035692
_cell_length_c   7.72926308
_cell_angle_alpha   69.44720322
_cell_angle_beta   110.55279678
_cell_angle_gamma   130.21912161
_symmetry_Int_Tables_number   1
_chemical_formula_structural   Gd2HfO5
_chemical_formula_sum   'Gd4 Hf2 O10'
_cell_volume   236.36086201
_cell_formula_units_Z   2
loop_
 _symmetry_equiv_pos_site_id
 _symmetry_equiv_pos_as_xyz
  1  'x, y, z'
loop_
 _atom_site_type_symbol
 _atom_site_label
 _atom_site_symmetry_multiplicity
 _atom_site_fract_x
 _atom_site_fract_y
 _atom_site_fract_z
 _atom_site_occupancy
  Gd  Gd0  1  0.366432  0.646591  0.749790  1
  Gd  Gd1  1  0.353409  0.633568  0.249790  1
  Gd  Gd2  1  0.646591  0.366432  0.750210  1
  Gd  Gd3  1  0.633568  0.353409  0.250210  1
  Hf  Hf4  1  0.000000  0.000000  0.000000  1
  Hf  Hf5  1  0.000000  0.000000  0.500000  1
  O  O6  1  0.249672  0.396417  0.543881  1
  O  O7  1  0.603583  0.750328  0.043881  1
  O  O8  1  0.978138  0.321546  0.858554  1
  O  O9  1  0.321546  0.978138  0.641446  1
  O  O10  1  0.678454  0.021862  0.358554  1
  O  O11  1  0.021862  0.678454  0.141446  1
  O  O12  1  0.396417  0.249672  0.956119  1
  O  O13  1  0.828697  0.828697  0.750000  1
  O  O14  1  0.750328  0.603583  0.456119  1
  O  O15  1  0.171303  0.171303  0.250000  1
