# generated using pymatgen
data_Na5Mn2P2(CO7)2
_symmetry_space_group_name_H-M   'P 1'
_cell_length_a   5.23740986
_cell_length_b   9.02573161
_cell_length_c   13.48661055
_cell_angle_alpha   89.93225503
_cell_angle_beta   89.94916785
_cell_angle_gamma   89.27510160
_symmetry_Int_Tables_number   1
_chemical_formula_structural   Na5Mn2P2(CO7)2
_chemical_formula_sum   'Na10 Mn4 P4 C4 O28'
_cell_volume   637.48000165
_cell_formula_units_Z   2
loop_
 _symmetry_equiv_pos_site_id
 _symmetry_equiv_pos_as_xyz
  1  'x, y, z'
loop_
 _atom_site_type_symbol
 _atom_site_label
 _atom_site_symmetry_multiplicity
 _atom_site_fract_x
 _atom_site_fract_y
 _atom_site_fract_z
 _atom_site_occupancy
  Na  Na0  1  0.241951  0.919224  0.373900  1
  Na  Na1  1  0.756305  0.750106  0.755097  1
  Na  Na2  1  0.757841  0.762096  0.996263  1
  Na  Na3  1  0.753610  0.749057  0.249862  1
  Na  Na4  1  0.752895  0.740802  0.499323  1
  Na  Na5  1  0.242159  0.237904  0.003737  1
  Na  Na6  1  0.243695  0.249894  0.244903  1
  Na  Na7  1  0.247105  0.259198  0.500677  1
  Na  Na8  1  0.246390  0.250943  0.750138  1
  Na  Na9  1  0.758049  0.080776  0.626100  1
  Mn  Mn10  1  0.222608  0.644843  0.123673  1
  Mn  Mn11  1  0.220773  0.641019  0.626087  1
  Mn  Mn12  1  0.777392  0.355157  0.876327  1
  Mn  Mn13  1  0.779227  0.358981  0.373913  1
  P  P14  1  0.295224  0.577421  0.875981  1
  P  P15  1  0.297101  0.585522  0.373888  1
  P  P16  1  0.704776  0.422579  0.124019  1
  P  P17  1  0.702899  0.414478  0.626112  1
  C  C18  1  0.275756  0.925287  0.124859  1
  C  C19  1  0.266081  0.938522  0.624597  1
  C  C20  1  0.733919  0.061478  0.375403  1
  C  C21  1  0.724244  0.074713  0.875141  1
  O  O22  1  0.729391  0.935394  0.871964  1
  O  O23  1  0.714835  0.918783  0.376705  1
  O  O24  1  0.060708  0.848128  0.123481  1
  O  O25  1  0.042565  0.876681  0.624254  1
  O  O26  1  0.470104  0.854206  0.624561  1
  O  O27  1  0.479920  0.842373  0.124883  1
  O  O28  1  0.223364  0.668598  0.783795  1
  O  O29  1  0.227333  0.667590  0.970075  1
  O  O30  1  0.217256  0.678291  0.280373  1
  O  O31  1  0.211918  0.679394  0.464985  1
  O  O32  1  0.596257  0.548531  0.874438  1
  O  O33  1  0.593760  0.568542  0.375161  1
  O  O34  1  0.835641  0.576008  0.123178  1
  O  O35  1  0.824557  0.569922  0.626865  1
  O  O36  1  0.164359  0.423992  0.876822  1
  O  O37  1  0.175443  0.430078  0.373135  1
  O  O38  1  0.403743  0.451469  0.125562  1
  O  O39  1  0.406240  0.431458  0.624839  1
  O  O40  1  0.772667  0.332410  0.029925  1
  O  O41  1  0.776636  0.331402  0.216205  1
  O  O42  1  0.788082  0.320606  0.535015  1
  O  O43  1  0.782744  0.321709  0.719627  1
  O  O44  1  0.520080  0.157627  0.875117  1
  O  O45  1  0.529896  0.145794  0.375439  1
  O  O46  1  0.939292  0.151872  0.876519  1
  O  O47  1  0.957435  0.123319  0.375746  1
  O  O48  1  0.270609  0.064606  0.128036  1
  O  O49  1  0.285165  0.081217  0.623295  1
