# generated using pymatgen
data_Rb5FeO4
_symmetry_space_group_name_H-M   'P 1'
_cell_length_a   7.16102848
_cell_length_b   7.37527232
_cell_length_c   8.76387155
_cell_angle_alpha   90.00000000
_cell_angle_beta   90.00000000
_cell_angle_gamma   90.00000000
_symmetry_Int_Tables_number   1
_chemical_formula_structural   Rb5FeO4
_chemical_formula_sum   'Rb10 Fe2 O8'
_cell_volume   462.85980186
_cell_formula_units_Z   2
loop_
 _symmetry_equiv_pos_site_id
 _symmetry_equiv_pos_as_xyz
  1  'x, y, z'
loop_
 _atom_site_type_symbol
 _atom_site_label
 _atom_site_symmetry_multiplicity
 _atom_site_fract_x
 _atom_site_fract_y
 _atom_site_fract_z
 _atom_site_occupancy
  Rb  Rb0  1  0.922083  0.061108  0.311274  1
  Rb  Rb1  1  0.922083  0.061108  0.688726  1
  Rb  Rb2  1  0.746295  0.624154  0.701882  1
  Rb  Rb3  1  0.746295  0.624154  0.298118  1
  Rb  Rb4  1  0.751807  0.310854  0.000000  1
  Rb  Rb5  1  0.422083  0.938892  0.811274  1
  Rb  Rb6  1  0.422083  0.938892  0.188726  1
  Rb  Rb7  1  0.246295  0.375846  0.798118  1
  Rb  Rb8  1  0.246295  0.375846  0.201882  1
  Rb  Rb9  1  0.251807  0.689146  0.500000  1
  Fe  Fe10  1  0.002388  0.820605  0.000000  1
  Fe  Fe11  1  0.502388  0.179395  0.500000  1
  O  O12  1  0.733682  0.784832  0.000000  1
  O  O13  1  0.572667  0.919147  0.500000  1
  O  O14  1  0.597369  0.279577  0.308067  1
  O  O15  1  0.597369  0.279577  0.691933  1
  O  O16  1  0.233682  0.215168  0.500000  1
  O  O17  1  0.072667  0.080853  0.000000  1
  O  O18  1  0.097369  0.720423  0.808067  1
  O  O19  1  0.097369  0.720423  0.191933  1
