# generated using pymatgen
data_V4O7F5
_symmetry_space_group_name_H-M   'P 1'
_cell_length_a   5.24002490
_cell_length_b   5.31602693
_cell_length_c   9.07751608
_cell_angle_alpha   73.82702100
_cell_angle_beta   74.34679968
_cell_angle_gamma   61.47358968
_symmetry_Int_Tables_number   1
_chemical_formula_structural   V4O7F5
_chemical_formula_sum   'V4 O7 F5'
_cell_volume   210.55124847
_cell_formula_units_Z   1
loop_
 _symmetry_equiv_pos_site_id
 _symmetry_equiv_pos_as_xyz
  1  'x, y, z'
loop_
 _atom_site_type_symbol
 _atom_site_label
 _atom_site_symmetry_multiplicity
 _atom_site_fract_x
 _atom_site_fract_y
 _atom_site_fract_z
 _atom_site_occupancy
  V  V0  1  0.213485  0.283661  0.228725  1
  V  V1  1  0.050727  0.016520  0.983278  1
  V  V2  1  0.453183  0.502286  0.491506  1
  V  V3  1  0.745034  0.716804  0.742581  1
  O  O4  1  0.110089  0.645175  0.590068  1
  O  O5  1  0.094331  0.078246  0.164452  1
  O  O6  1  0.607279  0.578049  0.658711  1
  O  O7  1  0.407795  0.389441  0.346957  1
  O  O8  1  0.411158  0.836932  0.914376  1
  O  O9  1  0.956707  0.359536  0.881090  1
  O  O10  1  0.056025  0.609391  0.125892  1
  F  F11  1  0.470278  0.844287  0.377984  1
  F  F12  1  0.579983  0.154148  0.097927  1
  F  F13  1  0.569013  0.123778  0.625494  1
  F  F14  1  0.910445  0.905855  0.847413  1
  F  F15  1  0.926717  0.318267  0.411387  1
