# generated using pymatgen
data_Li2Mn2OF6
_symmetry_space_group_name_H-M   'P 1'
_cell_length_a   5.72880310
_cell_length_b   7.03304124
_cell_length_c   7.42170232
_cell_angle_alpha   62.78393121
_cell_angle_beta   71.10716952
_cell_angle_gamma   78.82883604
_symmetry_Int_Tables_number   1
_chemical_formula_structural   Li2Mn2OF6
_chemical_formula_sum   'Li4 Mn4 O2 F12'
_cell_volume   251.22438655
_cell_formula_units_Z   2
loop_
 _symmetry_equiv_pos_site_id
 _symmetry_equiv_pos_as_xyz
  1  'x, y, z'
loop_
 _atom_site_type_symbol
 _atom_site_label
 _atom_site_symmetry_multiplicity
 _atom_site_fract_x
 _atom_site_fract_y
 _atom_site_fract_z
 _atom_site_occupancy
  Li  Li0  1  0.689610  0.605967  0.787631  1
  Li  Li1  1  0.210371  0.869758  0.919385  1
  Li  Li2  1  0.789629  0.130242  0.080615  1
  Li  Li3  1  0.310390  0.394033  0.212369  1
  Mn  Mn4  1  0.777395  0.137754  0.591916  1
  Mn  Mn5  1  0.658614  0.583723  0.277557  1
  Mn  Mn6  1  0.341386  0.416277  0.722443  1
  Mn  Mn7  1  0.222605  0.862246  0.408084  1
  O  O8  1  0.498791  0.680952  0.500357  1
  O  O9  1  0.501209  0.319048  0.499643  1
  F  F10  1  0.973363  0.380904  0.386763  1
  F  F11  1  0.580630  0.898403  0.755596  1
  F  F12  1  0.840881  0.829347  0.093844  1
  F  F13  1  0.684607  0.282206  0.808504  1
  F  F14  1  0.928909  0.024361  0.338374  1
  F  F15  1  0.710625  0.462285  0.079049  1
  F  F16  1  0.289375  0.537715  0.920951  1
  F  F17  1  0.071091  0.975639  0.661626  1
  F  F18  1  0.315393  0.717794  0.191496  1
  F  F19  1  0.159119  0.170653  0.906156  1
  F  F20  1  0.419370  0.101597  0.244404  1
  F  F21  1  0.026637  0.619096  0.613237  1
