# generated using pymatgen
data_LiMnSiO4
_symmetry_space_group_name_H-M   'P 1'
_cell_length_a   5.72788576
_cell_length_b   10.28389145
_cell_length_c   10.32999126
_cell_angle_alpha   90.00000000
_cell_angle_beta   90.59882731
_cell_angle_gamma   90.00000000
_symmetry_Int_Tables_number   1
_chemical_formula_structural   LiMnSiO4
_chemical_formula_sum   'Li8 Mn8 Si8 O32'
_cell_volume   608.45444081
_cell_formula_units_Z   8
loop_
 _symmetry_equiv_pos_site_id
 _symmetry_equiv_pos_as_xyz
  1  'x, y, z'
loop_
 _atom_site_type_symbol
 _atom_site_label
 _atom_site_symmetry_multiplicity
 _atom_site_fract_x
 _atom_site_fract_y
 _atom_site_fract_z
 _atom_site_occupancy
  Li  Li0  1  0.879458  0.159945  0.147937  1
  Li  Li1  1  0.879458  0.340055  0.647937  1
  Li  Li2  1  0.636238  0.627764  0.395942  1
  Li  Li3  1  0.636238  0.872236  0.895942  1
  Li  Li4  1  0.363762  0.127764  0.104058  1
  Li  Li5  1  0.363762  0.372236  0.604058  1
  Li  Li6  1  0.120542  0.659945  0.352063  1
  Li  Li7  1  0.120542  0.840055  0.852063  1
  Mn  Mn8  1  0.845273  0.873310  0.480528  1
  Mn  Mn9  1  0.845273  0.626690  0.980528  1
  Mn  Mn10  1  0.637851  0.409390  0.223117  1
  Mn  Mn11  1  0.637851  0.090610  0.723117  1
  Mn  Mn12  1  0.362149  0.909390  0.276883  1
  Mn  Mn13  1  0.362149  0.590610  0.776883  1
  Mn  Mn14  1  0.154727  0.373310  0.019472  1
  Mn  Mn15  1  0.154727  0.126690  0.519472  1
  Si  Si16  1  0.876023  0.892562  0.170171  1
  Si  Si17  1  0.876023  0.607438  0.670171  1
  Si  Si18  1  0.625464  0.147486  0.415511  1
  Si  Si19  1  0.625464  0.352514  0.915511  1
  Si  Si20  1  0.374536  0.647486  0.084489  1
  Si  Si21  1  0.374536  0.852514  0.584489  1
  Si  Si22  1  0.123977  0.392562  0.329829  1
  Si  Si23  1  0.123977  0.107438  0.829829  1
  O  O24  1  0.882306  0.800822  0.038249  1
  O  O25  1  0.892555  0.489382  0.330445  1
  O  O26  1  0.882306  0.699178  0.538249  1
  O  O27  1  0.892555  0.010618  0.830445  1
  O  O28  1  0.884316  0.803764  0.305598  1
  O  O29  1  0.853064  0.050218  0.419560  1
  O  O30  1  0.884316  0.696236  0.805598  1
  O  O31  1  0.853064  0.449782  0.919560  1
  O  O32  1  0.673418  0.246755  0.299346  1
  O  O33  1  0.636582  0.981048  0.163875  1
  O  O34  1  0.673418  0.253245  0.799346  1
  O  O35  1  0.636582  0.518952  0.663875  1
  O  O36  1  0.619659  0.566035  0.117806  1
  O  O37  1  0.582125  0.292169  0.060319  1
  O  O38  1  0.619659  0.933965  0.617806  1
  O  O39  1  0.582125  0.207831  0.560319  1
  O  O40  1  0.417875  0.792169  0.439681  1
  O  O41  1  0.380341  0.066035  0.382194  1
  O  O42  1  0.417875  0.707831  0.939681  1
  O  O43  1  0.380341  0.433965  0.882194  1
  O  O44  1  0.363418  0.481048  0.336125  1
  O  O45  1  0.326582  0.746755  0.200654  1
  O  O46  1  0.363418  0.018952  0.836125  1
  O  O47  1  0.326582  0.753245  0.700654  1
  O  O48  1  0.146936  0.550218  0.080440  1
  O  O49  1  0.115684  0.303764  0.194402  1
  O  O50  1  0.146936  0.949782  0.580440  1
  O  O51  1  0.115684  0.196236  0.694402  1
  O  O52  1  0.107445  0.989382  0.169555  1
  O  O53  1  0.117694  0.300822  0.461751  1
  O  O54  1  0.107445  0.510618  0.669555  1
  O  O55  1  0.117694  0.199178  0.961751  1
