# generated using pymatgen
data_LuTa7O19
_symmetry_space_group_name_H-M   'P 1'
_cell_length_a   6.24806134
_cell_length_b   6.24806134
_cell_length_c   20.03968764
_cell_angle_alpha   90.00000000
_cell_angle_beta   90.00000000
_cell_angle_gamma   120.00000000
_symmetry_Int_Tables_number   1
_chemical_formula_structural   LuTa7O19
_chemical_formula_sum   'Lu2 Ta14 O38'
_cell_volume   677.50444409
_cell_formula_units_Z   2
loop_
 _symmetry_equiv_pos_site_id
 _symmetry_equiv_pos_as_xyz
  1  'x, y, z'
loop_
 _atom_site_type_symbol
 _atom_site_label
 _atom_site_symmetry_multiplicity
 _atom_site_fract_x
 _atom_site_fract_y
 _atom_site_fract_z
 _atom_site_occupancy
  Lu  Lu0  1  0.666667  0.333333  0.000000  1
  Lu  Lu1  1  0.666667  0.333333  0.500000  1
  Ta  Ta2  1  0.693733  0.027536  0.344834  1
  Ta  Ta3  1  0.693733  0.027536  0.155166  1
  Ta  Ta4  1  0.972464  0.306267  0.844834  1
  Ta  Ta5  1  0.972464  0.306267  0.655166  1
  Ta  Ta6  1  0.693733  0.666197  0.844834  1
  Ta  Ta7  1  0.693733  0.666197  0.655166  1
  Ta  Ta8  1  0.000000  0.000000  0.500000  1
  Ta  Ta9  1  0.000000  0.000000  0.000000  1
  Ta  Ta10  1  0.972464  0.666197  0.155166  1
  Ta  Ta11  1  0.972464  0.666197  0.344834  1
  Ta  Ta12  1  0.333803  0.306267  0.155166  1
  Ta  Ta13  1  0.333803  0.306267  0.344834  1
  Ta  Ta14  1  0.333803  0.027536  0.844834  1
  Ta  Ta15  1  0.333803  0.027536  0.655166  1
  O  O16  1  0.332867  0.418910  0.653055  1
  O  O17  1  0.332867  0.418910  0.846945  1
  O  O18  1  0.376345  0.293210  0.250000  1
  O  O19  1  0.581090  0.667133  0.346945  1
  O  O20  1  0.581090  0.667133  0.153055  1
  O  O21  1  0.376345  0.083135  0.750000  1
  O  O22  1  0.332867  0.913957  0.153055  1
  O  O23  1  0.332867  0.913957  0.346945  1
  O  O24  1  0.706790  0.623655  0.750000  1
  O  O25  1  0.666667  0.333333  0.130514  1
  O  O26  1  0.666667  0.333333  0.869486  1
  O  O27  1  0.666667  0.333333  0.630514  1
  O  O28  1  0.666667  0.333333  0.369486  1
  O  O29  1  0.916865  0.623655  0.250000  1
  O  O30  1  0.581090  0.913957  0.653055  1
  O  O31  1  0.581090  0.913957  0.846945  1
  O  O32  1  0.706790  0.083135  0.250000  1
  O  O33  1  0.759903  0.053188  0.054879  1
  O  O34  1  0.759903  0.053188  0.445121  1
  O  O35  1  0.086043  0.667133  0.653055  1
  O  O36  1  0.086043  0.667133  0.846945  1
  O  O37  1  0.916865  0.293210  0.750000  1
  O  O38  1  0.946812  0.240097  0.945121  1
  O  O39  1  0.946812  0.240097  0.554879  1
  O  O40  1  0.086043  0.418910  0.346945  1
  O  O41  1  0.086043  0.418910  0.153055  1
  O  O42  1  0.759903  0.706715  0.554879  1
  O  O43  1  0.759903  0.706715  0.945121  1
  O  O44  1  0.000000  0.000000  0.334139  1
  O  O45  1  0.000000  0.000000  0.834139  1
  O  O46  1  0.000000  0.000000  0.665861  1
  O  O47  1  0.000000  0.000000  0.165861  1
  O  O48  1  0.946812  0.706715  0.054879  1
  O  O49  1  0.946812  0.706715  0.445121  1
  O  O50  1  0.293285  0.240097  0.054879  1
  O  O51  1  0.293285  0.240097  0.445121  1
  O  O52  1  0.293285  0.053188  0.945121  1
  O  O53  1  0.293285  0.053188  0.554879  1
