# generated using pymatgen
data_LiZnFe7O12
_symmetry_space_group_name_H-M   'P 1'
_cell_length_a   6.03899070
_cell_length_b   6.03899070
_cell_length_c   14.77539427
_cell_angle_alpha   89.77637210
_cell_angle_beta   90.22362790
_cell_angle_gamma   119.95042771
_symmetry_Int_Tables_number   1
_chemical_formula_structural   LiZnFe7O12
_chemical_formula_sum   'Li2 Zn2 Fe14 O24'
_cell_volume   466.88588285
_cell_formula_units_Z   2
loop_
 _symmetry_equiv_pos_site_id
 _symmetry_equiv_pos_as_xyz
  1  'x, y, z'
loop_
 _atom_site_type_symbol
 _atom_site_label
 _atom_site_symmetry_multiplicity
 _atom_site_fract_x
 _atom_site_fract_y
 _atom_site_fract_z
 _atom_site_occupancy
  Li  Li0  1  0.000466  0.999534  0.248947  1
  Li  Li1  1  0.333041  0.666959  0.584947  1
  Zn  Zn2  1  0.334769  0.665231  0.958086  1
  Zn  Zn3  1  0.169395  0.830605  0.789817  1
  Fe  Fe4  1  0.999360  0.000640  0.001604  1
  Fe  Fe5  1  0.171621  0.338950  0.791427  1
  Fe  Fe6  1  0.673199  0.326801  0.914844  1
  Fe  Fe7  1  0.996314  0.003686  0.620976  1
  Fe  Fe8  1  0.838330  0.161670  0.458356  1
  Fe  Fe9  1  0.659918  0.340082  0.665029  1
  Fe  Fe10  1  0.661050  0.828379  0.791427  1
  Fe  Fe11  1  0.322476  0.160974  0.459827  1
  Fe  Fe12  1  0.839026  0.677524  0.459827  1
  Fe  Fe13  1  0.501025  0.003893  0.126888  1
  Fe  Fe14  1  0.666647  0.333353  0.287780  1
  Fe  Fe15  1  0.501477  0.498523  0.127201  1
  Fe  Fe16  1  0.334092  0.665908  0.335279  1
  Fe  Fe17  1  0.996107  0.498975  0.126888  1
  O  O18  1  0.836425  0.689307  0.707188  1
  O  O19  1  0.014994  0.497051  0.873769  1
  O  O20  1  0.498154  0.501846  0.870736  1
  O  O21  1  0.339964  0.660036  0.722674  1
  O  O22  1  0.664737  0.335263  0.533030  1
  O  O23  1  0.839474  0.160526  0.710438  1
  O  O24  1  0.997442  0.002558  0.869520  1
  O  O25  1  0.310693  0.163575  0.707188  1
  O  O26  1  0.509562  0.017569  0.376693  1
  O  O27  1  0.693473  0.849633  0.536742  1
  O  O28  1  0.502949  0.985006  0.873769  1
  O  O29  1  0.150367  0.306527  0.536742  1
  O  O30  1  0.365703  0.183870  0.203315  1
  O  O31  1  0.150564  0.849436  0.538619  1
  O  O32  1  0.817234  0.182766  0.202795  1
  O  O33  1  0.001522  0.998478  0.385542  1
  O  O34  1  0.173495  0.826505  0.047540  1
  O  O35  1  0.332083  0.667917  0.202702  1
  O  O36  1  0.509087  0.490913  0.377049  1
  O  O37  1  0.652435  0.824915  0.048634  1
  O  O38  1  0.982431  0.490438  0.376693  1
  O  O39  1  0.175085  0.347565  0.048634  1
  O  O40  1  0.816130  0.634297  0.203315  1
  O  O41  1  0.667662  0.332338  0.047519  1
