# generated using pymatgen
data_Li2TiCo3O8
_symmetry_space_group_name_H-M   'P 1'
_cell_length_a   8.51973436
_cell_length_b   8.51973436
_cell_length_c   8.16691086
_cell_angle_alpha   89.88325588
_cell_angle_beta   90.11674412
_cell_angle_gamma   89.91132207
_symmetry_Int_Tables_number   1
_chemical_formula_structural   Li2TiCo3O8
_chemical_formula_sum   'Li8 Ti4 Co12 O32'
_cell_volume   592.79918400
_cell_formula_units_Z   4
loop_
 _symmetry_equiv_pos_site_id
 _symmetry_equiv_pos_as_xyz
  1  'x, y, z'
loop_
 _atom_site_type_symbol
 _atom_site_label
 _atom_site_symmetry_multiplicity
 _atom_site_fract_x
 _atom_site_fract_y
 _atom_site_fract_z
 _atom_site_occupancy
  Li  Li0  1  0.998541  0.251834  0.370629  1
  Li  Li1  1  0.251834  0.998541  0.629371  1
  Li  Li2  1  0.751651  0.003277  0.120987  1
  Li  Li3  1  0.498825  0.749556  0.381447  1
  Li  Li4  1  0.003277  0.751651  0.879013  1
  Li  Li5  1  0.749556  0.498825  0.618553  1
  Li  Li6  1  0.246333  0.503271  0.131024  1
  Li  Li7  1  0.503271  0.246333  0.868976  1
  Ti  Ti8  1  0.378153  0.113241  0.257622  1
  Ti  Ti9  1  0.888558  0.888558  0.500000  1
  Ti  Ti10  1  0.616291  0.616291  0.000000  1
  Ti  Ti11  1  0.113241  0.378153  0.742378  1
  Co  Co12  1  0.624087  0.127941  0.502345  1
  Co  Co13  1  0.875094  0.120871  0.755611  1
  Co  Co14  1  0.129290  0.129290  0.000000  1
  Co  Co15  1  0.629494  0.873345  0.752211  1
  Co  Co16  1  0.370783  0.881739  0.991896  1
  Co  Co17  1  0.120871  0.875094  0.244389  1
  Co  Co18  1  0.374972  0.629703  0.746941  1
  Co  Co19  1  0.127941  0.624087  0.497655  1
  Co  Co20  1  0.873345  0.629494  0.247789  1
  Co  Co21  1  0.373469  0.373469  0.500000  1
  Co  Co22  1  0.629703  0.374972  0.253059  1
  Co  Co23  1  0.881739  0.370783  0.008104  1
  O  O24  1  0.384207  0.135910  0.490740  1
  O  O25  1  0.604125  0.134691  0.256492  1
  O  O26  1  0.895403  0.136715  0.992476  1
  O  O27  1  0.865182  0.109596  0.508660  1
  O  O28  1  0.115319  0.142028  0.761101  1
  O  O29  1  0.643785  0.103860  0.743833  1
  O  O30  1  0.360297  0.122944  0.011662  1
  O  O31  1  0.142028  0.115319  0.238899  1
  O  O32  1  0.636928  0.886151  0.526399  1
  O  O33  1  0.869962  0.881579  0.736626  1
  O  O34  1  0.136715  0.895403  0.007524  1
  O  O35  1  0.618746  0.863536  0.975985  1
  O  O36  1  0.368288  0.891821  0.236055  1
  O  O37  1  0.382903  0.862033  0.763457  1
  O  O38  1  0.109596  0.865182  0.491340  1
  O  O39  1  0.881579  0.869962  0.263374  1
  O  O40  1  0.617480  0.643400  0.760819  1
  O  O41  1  0.392761  0.632606  0.990283  1
  O  O42  1  0.103860  0.643785  0.256167  1
  O  O43  1  0.134691  0.604125  0.743508  1
  O  O44  1  0.886151  0.636928  0.473601  1
  O  O45  1  0.359312  0.611407  0.512013  1
  O  O46  1  0.643400  0.617480  0.239181  1
  O  O47  1  0.863536  0.618746  0.024015  1
  O  O48  1  0.363565  0.382231  0.723151  1
  O  O49  1  0.135910  0.384207  0.509260  1
  O  O50  1  0.862033  0.382903  0.236543  1
  O  O51  1  0.382231  0.363565  0.276849  1
  O  O52  1  0.632606  0.392761  0.009717  1
  O  O53  1  0.611407  0.359312  0.487987  1
  O  O54  1  0.891821  0.368288  0.763945  1
  O  O55  1  0.122944  0.360297  0.988338  1
