# generated using pymatgen
data_V2P4H3O16
_symmetry_space_group_name_H-M   'P 1'
_cell_length_a   4.96323473
_cell_length_b   7.32629393
_cell_length_c   8.00243788
_cell_angle_alpha   90.81515114
_cell_angle_beta   91.71558094
_cell_angle_gamma   102.25856187
_symmetry_Int_Tables_number   1
_chemical_formula_structural   V2P4H3O16
_chemical_formula_sum   'V2 P4 H3 O16'
_cell_volume   284.16035641
_cell_formula_units_Z   1
loop_
 _symmetry_equiv_pos_site_id
 _symmetry_equiv_pos_as_xyz
  1  'x, y, z'
loop_
 _atom_site_type_symbol
 _atom_site_label
 _atom_site_symmetry_multiplicity
 _atom_site_fract_x
 _atom_site_fract_y
 _atom_site_fract_z
 _atom_site_occupancy
  V  V0  1  0.000562  0.497272  0.003980  1
  V  V1  1  0.499197  0.001799  0.499190  1
  P  P2  1  0.097901  0.246996  0.668954  1
  P  P3  1  0.398620  0.236522  0.151100  1
  P  P4  1  0.598384  0.753496  0.844907  1
  P  P5  1  0.901156  0.755275  0.330910  1
  H  H6  1  0.420390  0.431569  0.568116  1
  H  H7  1  0.578458  0.569543  0.431859  1
  H  H8  1  0.936654  0.969512  0.982276  1
  O  O9  1  0.165849  0.847902  0.429336  1
  O  O10  1  0.020640  0.306783  0.842358  1
  O  O11  1  0.219125  0.393176  0.153494  1
  O  O12  1  0.224912  0.433201  0.574392  1
  O  O13  1  0.322126  0.658101  0.921312  1
  O  O14  1  0.549074  0.810445  0.664341  1
  O  O15  1  0.258351  0.073505  0.044892  1
  O  O16  1  0.309167  0.123236  0.673235  1
  O  O17  1  0.689929  0.879065  0.326061  1
  O  O18  1  0.731693  0.927574  0.954503  1
  O  O19  1  0.451836  0.193248  0.336421  1
  O  O20  1  0.682289  0.346914  0.082686  1
  O  O21  1  0.774100  0.568840  0.425100  1
  O  O22  1  0.786457  0.608372  0.842563  1
  O  O23  1  0.978332  0.695804  0.157479  1
  O  O24  1  0.833680  0.153752  0.570636  1
