# generated using pymatgen
data_Li2FeF4
_symmetry_space_group_name_H-M   'P 1'
_cell_length_a   10.05541863
_cell_length_b   7.12972724
_cell_length_c   10.21522378
_cell_angle_alpha   90.00000000
_cell_angle_beta   117.81721736
_cell_angle_gamma   90.00000000
_symmetry_Int_Tables_number   1
_chemical_formula_structural   Li2FeF4
_chemical_formula_sum   'Li16 Fe8 F32'
_cell_volume   647.72359569
_cell_formula_units_Z   8
loop_
 _symmetry_equiv_pos_site_id
 _symmetry_equiv_pos_as_xyz
  1  'x, y, z'
loop_
 _atom_site_type_symbol
 _atom_site_label
 _atom_site_symmetry_multiplicity
 _atom_site_fract_x
 _atom_site_fract_y
 _atom_site_fract_z
 _atom_site_occupancy
  Li  Li0  1  0.926176  0.993073  0.343519  1
  Li  Li1  1  0.569204  0.626932  0.125828  1
  Li  Li2  1  0.929513  0.589907  0.355528  1
  Li  Li3  1  0.573756  0.022360  0.154423  1
  Li  Li4  1  0.426176  0.506927  0.343519  1
  Li  Li5  1  0.069204  0.873068  0.125828  1
  Li  Li6  1  0.429513  0.910093  0.355528  1
  Li  Li7  1  0.073756  0.477640  0.154423  1
  Li  Li8  1  0.926244  0.522360  0.845577  1
  Li  Li9  1  0.570487  0.089907  0.644472  1
  Li  Li10  1  0.930796  0.126932  0.874172  1
  Li  Li11  1  0.573824  0.493073  0.656481  1
  Li  Li12  1  0.426244  0.977640  0.845577  1
  Li  Li13  1  0.070487  0.410093  0.644472  1
  Li  Li14  1  0.430796  0.373068  0.874172  1
  Li  Li15  1  0.073824  0.006927  0.656481  1
  Fe  Fe16  1  0.760443  0.288089  0.020843  1
  Fe  Fe17  1  0.260443  0.211911  0.020843  1
  Fe  Fe18  1  0.747368  0.212507  0.483153  1
  Fe  Fe19  1  0.752632  0.712507  0.516847  1
  Fe  Fe20  1  0.247368  0.287493  0.483153  1
  Fe  Fe21  1  0.252632  0.787493  0.516847  1
  Fe  Fe22  1  0.739557  0.788089  0.979157  1
  Fe  Fe23  1  0.239557  0.711911  0.979157  1
  F  F24  1  0.880488  0.033402  0.036767  1
  F  F25  1  0.561015  0.164443  0.987437  1
  F  F26  1  0.916272  0.404629  0.202682  1
  F  F27  1  0.757406  0.778353  0.185025  1
  F  F28  1  0.380488  0.466598  0.036767  1
  F  F29  1  0.061015  0.335557  0.987437  1
  F  F30  1  0.746857  0.136709  0.299661  1
  F  F31  1  0.416272  0.095371  0.202682  1
  F  F32  1  0.923820  0.834475  0.495130  1
  F  F33  1  0.257406  0.721647  0.185025  1
  F  F34  1  0.574468  0.651688  0.313953  1
  F  F35  1  0.859586  0.465680  0.491844  1
  F  F36  1  0.640414  0.965680  0.508156  1
  F  F37  1  0.246857  0.363291  0.299661  1
  F  F38  1  0.925532  0.151688  0.686047  1
  F  F39  1  0.576180  0.334475  0.504870  1
  F  F40  1  0.423820  0.665525  0.495130  1
  F  F41  1  0.074468  0.848312  0.313953  1
  F  F42  1  0.753143  0.636709  0.700339  1
  F  F43  1  0.359586  0.034320  0.491844  1
  F  F44  1  0.140414  0.534320  0.508156  1
  F  F45  1  0.425532  0.348312  0.686047  1
  F  F46  1  0.742594  0.278353  0.814975  1
  F  F47  1  0.076180  0.165525  0.504870  1
  F  F48  1  0.583728  0.904629  0.797318  1
  F  F49  1  0.253143  0.863291  0.700339  1
  F  F50  1  0.938985  0.664443  0.012563  1
  F  F51  1  0.619512  0.533402  0.963233  1
  F  F52  1  0.242594  0.221647  0.814975  1
  F  F53  1  0.083728  0.595371  0.797318  1
  F  F54  1  0.438985  0.835557  0.012563  1
  F  F55  1  0.119512  0.966598  0.963233  1
