# generated using pymatgen
data_Co3Cu(PO4)4
_symmetry_space_group_name_H-M   'P 1'
_cell_length_a   4.78818955
_cell_length_b   5.82810987
_cell_length_c   9.83444372
_cell_angle_alpha   90.00000000
_cell_angle_beta   90.24338642
_cell_angle_gamma   90.00000000
_symmetry_Int_Tables_number   1
_chemical_formula_structural   Co3Cu(PO4)4
_chemical_formula_sum   'Co3 Cu1 P4 O16'
_cell_volume   274.43844278
_cell_formula_units_Z   1
loop_
 _symmetry_equiv_pos_site_id
 _symmetry_equiv_pos_as_xyz
  1  'x, y, z'
loop_
 _atom_site_type_symbol
 _atom_site_label
 _atom_site_symmetry_multiplicity
 _atom_site_fract_x
 _atom_site_fract_y
 _atom_site_fract_z
 _atom_site_occupancy
  Co  Co0  1  0.055147  0.000000  0.720850  1
  Co  Co1  1  0.440538  0.000000  0.219229  1
  Co  Co2  1  0.551289  0.500000  0.779655  1
  Cu  Cu3  1  0.938724  0.500000  0.280454  1
  P  P4  1  0.081872  0.500000  0.593737  1
  P  P5  1  0.420904  0.500000  0.097467  1
  P  P6  1  0.586709  0.000000  0.907231  1
  P  P7  1  0.909801  0.000000  0.401811  1
  O  O8  1  0.162461  0.500000  0.442993  1
  O  O9  1  0.232246  0.295491  0.670893  1
  O  O10  1  0.232246  0.704509  0.670893  1
  O  O11  1  0.228137  0.000000  0.384602  1
  O  O12  1  0.270382  0.000000  0.888001  1
  O  O13  1  0.278381  0.292014  0.171508  1
  O  O14  1  0.278381  0.707986  0.171508  1
  O  O15  1  0.339229  0.500000  0.946288  1
  O  O16  1  0.667821  0.000000  0.058129  1
  O  O17  1  0.732473  0.793467  0.830363  1
  O  O18  1  0.732473  0.206533  0.830363  1
  O  O19  1  0.741583  0.500000  0.111061  1
  O  O20  1  0.766255  0.500000  0.612387  1
  O  O21  1  0.756009  0.796391  0.328273  1
  O  O22  1  0.756009  0.203609  0.328273  1
  O  O23  1  0.840930  0.000000  0.554030  1
