# generated using pymatgen
data_Li2VOF4
_symmetry_space_group_name_H-M   'P 1'
_cell_length_a   5.25235958
_cell_length_b   8.57861808
_cell_length_c   9.39020917
_cell_angle_alpha   90.65545280
_cell_angle_beta   93.32647132
_cell_angle_gamma   92.16472871
_symmetry_Int_Tables_number   1
_chemical_formula_structural   Li2VOF4
_chemical_formula_sum   'Li8 V4 O4 F16'
_cell_volume   422.05019868
_cell_formula_units_Z   4
loop_
 _symmetry_equiv_pos_site_id
 _symmetry_equiv_pos_as_xyz
  1  'x, y, z'
loop_
 _atom_site_type_symbol
 _atom_site_label
 _atom_site_symmetry_multiplicity
 _atom_site_fract_x
 _atom_site_fract_y
 _atom_site_fract_z
 _atom_site_occupancy
  Li  Li0  1  0.782210  0.609392  0.320863  1
  Li  Li1  1  0.673102  0.609618  0.983363  1
  Li  Li2  1  0.822631  0.123429  0.008665  1
  Li  Li3  1  0.744148  0.103981  0.664337  1
  Li  Li4  1  0.195798  0.436861  0.182001  1
  Li  Li5  1  0.181945  0.380699  0.509729  1
  Li  Li6  1  0.339287  0.871674  0.492537  1
  Li  Li7  1  0.319282  0.910238  0.806780  1
  V  V8  1  0.675632  0.217992  0.353717  1
  V  V9  1  0.812549  0.712404  0.629907  1
  V  V10  1  0.233595  0.800724  0.129112  1
  V  V11  1  0.285090  0.280796  0.870716  1
  O  O12  1  0.763557  0.610301  0.774095  1
  O  O13  1  0.590516  0.677368  0.497369  1
  O  O14  1  0.675865  0.104903  0.209903  1
  O  O15  1  0.329035  0.355498  0.712430  1
  F  F16  1  0.995183  0.138526  0.813598  1
  F  F17  1  0.085236  0.871832  0.641177  1
  F  F18  1  0.003106  0.932014  0.030146  1
  F  F19  1  0.921827  0.197852  0.511452  1
  F  F20  1  0.526573  0.399884  0.995735  1
  F  F21  1  0.415619  0.369888  0.343992  1
  F  F22  1  0.513410  0.673442  0.195622  1
  F  F23  1  0.614886  0.895505  0.685050  1
  F  F24  1  0.489740  0.100914  0.891565  1
  F  F25  1  0.461553  0.098784  0.477707  1
  F  F26  1  0.385294  0.761363  0.946123  1
  F  F27  1  0.066619  0.307757  0.028768  1
  F  F28  1  0.133909  0.839381  0.318634  1
  F  F29  1  0.056761  0.593816  0.541784  1
  F  F30  1  0.998286  0.616907  0.117762  1
  F  F31  1  0.907755  0.396256  0.315361  1
