# generated using pymatgen
data_V4(OF3)3
_symmetry_space_group_name_H-M   'P 1'
_cell_length_a   5.27235112
_cell_length_b   5.40840327
_cell_length_c   17.53341128
_cell_angle_alpha   89.25425311
_cell_angle_beta   98.16346845
_cell_angle_gamma   119.01475451
_symmetry_Int_Tables_number   1
_chemical_formula_structural   V4(OF3)3
_chemical_formula_sum   'V8 O6 F18'
_cell_volume   431.88468403
_cell_formula_units_Z   2
loop_
 _symmetry_equiv_pos_site_id
 _symmetry_equiv_pos_as_xyz
  1  'x, y, z'
loop_
 _atom_site_type_symbol
 _atom_site_label
 _atom_site_symmetry_multiplicity
 _atom_site_fract_x
 _atom_site_fract_y
 _atom_site_fract_z
 _atom_site_occupancy
  V  V0  1  0.754877  0.379395  0.124974  1
  V  V1  1  0.737547  0.892420  0.629960  1
  V  V2  1  0.523739  0.731815  0.249431  1
  V  V3  1  0.495947  0.241595  0.750109  1
  V  V4  1  0.216444  0.095286  0.372770  1
  V  V5  1  0.251584  0.654844  0.871297  1
  V  V6  1  0.991210  0.027054  0.001332  1
  V  V7  1  0.969036  0.468996  0.504464  1
  O  O8  1  0.799041  0.193523  0.558600  1
  O  O9  1  0.853191  0.205974  0.041506  1
  O  O10  1  0.858819  0.914878  0.333138  1
  O  O11  1  0.652009  0.548257  0.207669  1
  O  O12  1  0.665937  0.046864  0.700922  1
  O  O13  1  0.299322  0.923900  0.814908  1
  F  F14  1  0.338011  0.162919  0.082539  1
  F  F15  1  0.792358  0.688550  0.060423  1
  F  F16  1  0.716241  0.068431  0.188890  1
  F  F17  1  0.355884  0.959612  0.293245  1
  F  F18  1  0.324907  0.662588  0.583537  1
  F  F19  1  0.321243  0.450885  0.791136  1
  F  F20  1  0.169798  0.596371  0.168056  1
  F  F21  1  0.165069  0.085144  0.664081  1
  F  F22  1  0.171269  0.289786  0.459216  1
  F  F23  1  0.290440  0.437500  0.315340  1
  F  F24  1  0.715962  0.571865  0.687855  1
  F  F25  1  0.822861  0.708365  0.542614  1
  F  F26  1  0.828317  0.415514  0.836354  1
  F  F27  1  0.167813  0.798120  0.960504  1
  F  F28  1  0.655521  0.325383  0.415007  1
  F  F29  1  0.215971  0.323205  0.934424  1
  F  F30  1  0.205370  0.799509  0.441062  1
  F  F31  1  0.674257  0.831452  0.914632  1
