# generated using pymatgen
data_Li3Nb2VO6
_symmetry_space_group_name_H-M   'P 1'
_cell_length_a   7.00457911
_cell_length_b   7.00457911
_cell_length_c   6.18580468
_cell_angle_alpha   74.25648832
_cell_angle_beta   105.74351168
_cell_angle_gamma   155.85909732
_symmetry_Int_Tables_number   1
_chemical_formula_structural   Li3Nb2VO6
_chemical_formula_sum   'Li3 Nb2 V1 O6'
_cell_volume   119.25273186
_cell_formula_units_Z   1
loop_
 _symmetry_equiv_pos_site_id
 _symmetry_equiv_pos_as_xyz
  1  'x, y, z'
loop_
 _atom_site_type_symbol
 _atom_site_label
 _atom_site_symmetry_multiplicity
 _atom_site_fract_x
 _atom_site_fract_y
 _atom_site_fract_z
 _atom_site_occupancy
  Li  Li0  1  0.000000  0.000000  0.000000  1
  Li  Li1  1  0.340766  0.659234  0.659749  1
  Li  Li2  1  0.659234  0.340766  0.340251  1
  Nb  Nb3  1  0.322611  0.677389  0.145246  1
  Nb  Nb4  1  0.677389  0.322611  0.854754  1
  V  V5  1  1.000000  0.000000  0.500000  1
  O  O6  1  0.840046  0.159954  0.409564  1
  O  O7  1  0.155686  0.844314  0.098644  1
  O  O8  1  0.159954  0.840046  0.590436  1
  O  O9  1  0.510772  0.489228  0.735672  1
  O  O10  1  0.489228  0.510772  0.264328  1
  O  O11  1  0.844314  0.155686  0.901356  1
