# generated using pymatgen
data_Li6MnSiO6
_symmetry_space_group_name_H-M   'P 1'
_cell_length_a   8.27352814
_cell_length_b   8.27352814
_cell_length_c   8.27352814
_cell_angle_alpha   90.00000000
_cell_angle_beta   90.00000000
_cell_angle_gamma   90.00000000
_symmetry_Int_Tables_number   1
_chemical_formula_structural   Li6MnSiO6
_chemical_formula_sum   'Li24 Mn4 Si4 O24'
_cell_volume   566.33349105
_cell_formula_units_Z   4
loop_
 _symmetry_equiv_pos_site_id
 _symmetry_equiv_pos_as_xyz
  1  'x, y, z'
loop_
 _atom_site_type_symbol
 _atom_site_label
 _atom_site_symmetry_multiplicity
 _atom_site_fract_x
 _atom_site_fract_y
 _atom_site_fract_z
 _atom_site_occupancy
  Li  Li0  1  0.020135  0.172068  0.334260  1
  Li  Li1  1  0.003701  0.236515  0.726620  1
  Li  Li2  1  0.172068  0.334260  0.020135  1
  Li  Li3  1  0.165740  0.979865  0.672068  1
  Li  Li4  1  0.273380  0.503701  0.263485  1
  Li  Li5  1  0.236515  0.726620  0.003701  1
  Li  Li6  1  0.263485  0.273380  0.503701  1
  Li  Li7  1  0.226620  0.496299  0.763485  1
  Li  Li8  1  0.334260  0.020135  0.172068  1
  Li  Li9  1  0.327932  0.665740  0.520135  1
  Li  Li10  1  0.496299  0.763485  0.226620  1
  Li  Li11  1  0.479865  0.827932  0.834260  1
  Li  Li12  1  0.520135  0.327932  0.665740  1
  Li  Li13  1  0.503701  0.263485  0.273380  1
  Li  Li14  1  0.672068  0.165740  0.979865  1
  Li  Li15  1  0.665740  0.520135  0.327932  1
  Li  Li16  1  0.773380  0.996299  0.736515  1
  Li  Li17  1  0.736515  0.773380  0.996299  1
  Li  Li18  1  0.763485  0.226620  0.496299  1
  Li  Li19  1  0.726620  0.003701  0.236515  1
  Li  Li20  1  0.834260  0.479865  0.827932  1
  Li  Li21  1  0.827932  0.834260  0.479865  1
  Li  Li22  1  0.996299  0.736515  0.773380  1
  Li  Li23  1  0.979865  0.672068  0.165740  1
  Mn  Mn24  1  0.126409  0.873591  0.373591  1
  Mn  Mn25  1  0.373591  0.126409  0.873591  1
  Mn  Mn26  1  0.626409  0.626409  0.626409  1
  Mn  Mn27  1  0.873591  0.373591  0.126409  1
  Si  Si28  1  0.992644  0.507356  0.492644  1
  Si  Si29  1  0.507356  0.492644  0.992644  1
  Si  Si30  1  0.492644  0.992644  0.507356  1
  Si  Si31  1  0.007356  0.007356  0.007356  1
  O  O32  1  0.010496  0.510496  0.989504  1
  O  O33  1  0.124498  0.899271  0.887259  1
  O  O34  1  0.100729  0.387259  0.375502  1
  O  O35  1  0.122990  0.122990  0.122990  1
  O  O36  1  0.112741  0.624498  0.600729  1
  O  O37  1  0.238048  0.261952  0.738048  1
  O  O38  1  0.261952  0.738048  0.238048  1
  O  O39  1  0.387259  0.375502  0.100729  1
  O  O40  1  0.377010  0.877010  0.622990  1
  O  O41  1  0.399271  0.612741  0.875502  1
  O  O42  1  0.375502  0.100729  0.387259  1
  O  O43  1  0.489504  0.489504  0.489504  1
  O  O44  1  0.510496  0.989504  0.010496  1
  O  O45  1  0.624498  0.600729  0.112741  1
  O  O46  1  0.600729  0.112741  0.624498  1
  O  O47  1  0.622990  0.377010  0.877010  1
  O  O48  1  0.612741  0.875502  0.399271  1
  O  O49  1  0.738048  0.238048  0.261952  1
  O  O50  1  0.761952  0.761952  0.761952  1
  O  O51  1  0.887259  0.124498  0.899271  1
  O  O52  1  0.877010  0.622990  0.377010  1
  O  O53  1  0.899271  0.887259  0.124498  1
  O  O54  1  0.875502  0.399271  0.612741  1
  O  O55  1  0.989504  0.010496  0.510496  1
