# generated using pymatgen
data_VF3
_symmetry_space_group_name_H-M   'P 1'
_cell_length_a   5.14574363
_cell_length_b   5.40239477
_cell_length_c   7.49533177
_cell_angle_alpha   90.00000000
_cell_angle_beta   90.00000000
_cell_angle_gamma   90.00000000
_symmetry_Int_Tables_number   1
_chemical_formula_structural   VF3
_chemical_formula_sum   'V4 F12'
_cell_volume   208.36526494
_cell_formula_units_Z   4
loop_
 _symmetry_equiv_pos_site_id
 _symmetry_equiv_pos_as_xyz
  1  'x, y, z'
loop_
 _atom_site_type_symbol
 _atom_site_label
 _atom_site_symmetry_multiplicity
 _atom_site_fract_x
 _atom_site_fract_y
 _atom_site_fract_z
 _atom_site_occupancy
  V  V0  1  0.000000  0.500000  0.000000  1
  V  V1  1  0.000000  0.500000  0.500000  1
  V  V2  1  0.500000  0.000000  0.000000  1
  V  V3  1  0.500000  0.000000  0.500000  1
  F  F4  1  0.121027  0.528267  0.750000  1
  F  F5  1  0.683152  0.689558  0.559679  1
  F  F6  1  0.683152  0.689558  0.940321  1
  F  F7  1  0.183152  0.810442  0.059679  1
  F  F8  1  0.183152  0.810442  0.440321  1
  F  F9  1  0.621027  0.971733  0.250000  1
  F  F10  1  0.378973  0.028267  0.750000  1
  F  F11  1  0.816848  0.189558  0.940321  1
  F  F12  1  0.816848  0.189558  0.559679  1
  F  F13  1  0.316848  0.310442  0.059679  1
  F  F14  1  0.316848  0.310442  0.440321  1
  F  F15  1  0.878973  0.471733  0.250000  1
