# generated using pymatgen
data_LiTi2(PO4)3
_symmetry_space_group_name_H-M   'P 1'
_cell_length_a   8.65444802
_cell_length_b   8.70524223
_cell_length_c   12.02978595
_cell_angle_alpha   90.00000000
_cell_angle_beta   90.00000000
_cell_angle_gamma   90.00000000
_symmetry_Int_Tables_number   1
_chemical_formula_structural   LiTi2(PO4)3
_chemical_formula_sum   'Li4 Ti8 P12 O48'
_cell_volume   906.31284224
_cell_formula_units_Z   4
loop_
 _symmetry_equiv_pos_site_id
 _symmetry_equiv_pos_as_xyz
  1  'x, y, z'
loop_
 _atom_site_type_symbol
 _atom_site_label
 _atom_site_symmetry_multiplicity
 _atom_site_fract_x
 _atom_site_fract_y
 _atom_site_fract_z
 _atom_site_occupancy
  Li  Li0  1  0.963567  0.777274  0.069789  1
  Li  Li1  1  0.536433  0.277274  0.069789  1
  Li  Li2  1  0.036433  0.277274  0.930211  1
  Li  Li3  1  0.463567  0.777274  0.930211  1
  Ti  Ti4  1  0.000303  0.536053  0.626986  1
  Ti  Ti5  1  0.499697  0.036053  0.626986  1
  Ti  Ti6  1  0.500303  0.536053  0.373014  1
  Ti  Ti7  1  0.999697  0.036053  0.373014  1
  Ti  Ti8  1  0.004232  0.459365  0.139224  1
  Ti  Ti9  1  0.495768  0.959365  0.139224  1
  Ti  Ti10  1  0.995768  0.959365  0.860776  1
  Ti  Ti11  1  0.504232  0.459365  0.860776  1
  P  P12  1  0.788757  0.250347  0.747348  1
  P  P13  1  0.711243  0.750347  0.747348  1
  P  P14  1  0.354169  0.391056  0.602924  1
  P  P15  1  0.145831  0.891056  0.602924  1
  P  P16  1  0.854169  0.391056  0.397076  1
  P  P17  1  0.645831  0.891056  0.397076  1
  P  P18  1  0.211243  0.750347  0.252652  1
  P  P19  1  0.288757  0.250347  0.252652  1
  P  P20  1  0.854643  0.105932  0.105182  1
  P  P21  1  0.645357  0.605932  0.105182  1
  P  P22  1  0.145357  0.605932  0.894818  1
  P  P23  1  0.354643  0.105932  0.894818  1
  O  O24  1  0.411843  0.431616  0.723116  1
  O  O25  1  0.088157  0.931616  0.723116  1
  O  O26  1  0.607152  0.852476  0.676576  1
  O  O27  1  0.892848  0.352476  0.676576  1
  O  O28  1  0.812230  0.647377  0.675708  1
  O  O29  1  0.687770  0.147377  0.675708  1
  O  O30  1  0.178204  0.407473  0.596676  1
  O  O31  1  0.321796  0.907473  0.596676  1
  O  O32  1  0.098257  0.724891  0.578372  1
  O  O33  1  0.401743  0.224891  0.578372  1
  O  O34  1  0.070740  0.006071  0.522359  1
  O  O35  1  0.429260  0.506071  0.522359  1
  O  O36  1  0.929260  0.506071  0.477641  1
  O  O37  1  0.570740  0.006071  0.477641  1
  O  O38  1  0.901743  0.224891  0.421628  1
  O  O39  1  0.598257  0.724891  0.421628  1
  O  O40  1  0.821796  0.907473  0.403324  1
  O  O41  1  0.678204  0.407473  0.403324  1
  O  O42  1  0.312230  0.647377  0.324292  1
  O  O43  1  0.187770  0.147377  0.324292  1
  O  O44  1  0.392848  0.352476  0.323424  1
  O  O45  1  0.107152  0.852476  0.323424  1
  O  O46  1  0.911843  0.431616  0.276884  1
  O  O47  1  0.588157  0.931616  0.276884  1
  O  O48  1  0.908124  0.066694  0.222014  1
  O  O49  1  0.591876  0.566694  0.222014  1
  O  O50  1  0.103436  0.657847  0.172581  1
  O  O51  1  0.396564  0.157847  0.172581  1
  O  O52  1  0.186018  0.351346  0.174841  1
  O  O53  1  0.313982  0.851346  0.174841  1
  O  O54  1  0.824292  0.601672  0.094186  1
  O  O55  1  0.675708  0.101672  0.094186  1
  O  O56  1  0.909282  0.270416  0.070401  1
  O  O57  1  0.590718  0.770416  0.070401  1
  O  O58  1  0.924539  0.986892  0.022700  1
  O  O59  1  0.575461  0.486892  0.022700  1
  O  O60  1  0.075461  0.486892  0.977300  1
  O  O61  1  0.424539  0.986892  0.977300  1
  O  O62  1  0.090718  0.770416  0.929599  1
  O  O63  1  0.409282  0.270416  0.929599  1
  O  O64  1  0.175708  0.101672  0.905814  1
  O  O65  1  0.324292  0.601672  0.905814  1
  O  O66  1  0.813982  0.851346  0.825159  1
  O  O67  1  0.686018  0.351346  0.825159  1
  O  O68  1  0.896564  0.157847  0.827419  1
  O  O69  1  0.603436  0.657847  0.827419  1
  O  O70  1  0.091876  0.566694  0.777986  1
  O  O71  1  0.408124  0.066694  0.777986  1
