# generated using pymatgen
data_LiVP2H5O9
_symmetry_space_group_name_H-M   'P 1'
_cell_length_a   6.45918285
_cell_length_b   7.86913797
_cell_length_c   15.13981136
_cell_angle_alpha   90.00000000
_cell_angle_beta   90.00000000
_cell_angle_gamma   90.00000000
_symmetry_Int_Tables_number   1
_chemical_formula_structural   LiVP2H5O9
_chemical_formula_sum   'Li4 V4 P8 H20 O36'
_cell_volume   769.52937521
_cell_formula_units_Z   4
loop_
 _symmetry_equiv_pos_site_id
 _symmetry_equiv_pos_as_xyz
  1  'x, y, z'
loop_
 _atom_site_type_symbol
 _atom_site_label
 _atom_site_symmetry_multiplicity
 _atom_site_fract_x
 _atom_site_fract_y
 _atom_site_fract_z
 _atom_site_occupancy
  Li  Li0  1  0.772139  0.261461  0.969805  1
  Li  Li1  1  0.272139  0.761461  0.530195  1
  Li  Li2  1  0.727861  0.261461  0.469805  1
  Li  Li3  1  0.227861  0.761461  0.030195  1
  V  V4  1  0.061596  0.749393  0.809054  1
  V  V5  1  0.561596  0.249393  0.690946  1
  V  V6  1  0.438404  0.749393  0.309054  1
  V  V7  1  0.938404  0.249393  0.190946  1
  P  P8  1  0.366920  0.437405  0.868214  1
  P  P9  1  0.357566  0.065538  0.867262  1
  P  P10  1  0.866920  0.937405  0.631786  1
  P  P11  1  0.857566  0.565538  0.632738  1
  P  P12  1  0.133080  0.437405  0.368214  1
  P  P13  1  0.142434  0.065538  0.367262  1
  P  P14  1  0.633080  0.937405  0.131786  1
  P  P15  1  0.642434  0.565538  0.132738  1
  H  H16  1  0.506515  0.004884  0.992948  1
  H  H17  1  0.715171  0.848931  0.903461  1
  H  H18  1  0.716069  0.645405  0.905069  1
  H  H19  1  0.895668  0.352153  0.774916  1
  H  H20  1  0.894164  0.144686  0.774470  1
  H  H21  1  0.395668  0.852153  0.725084  1
  H  H22  1  0.394164  0.644686  0.725530  1
  H  H23  1  0.215171  0.348931  0.596539  1
  H  H24  1  0.216069  0.145405  0.594931  1
  H  H25  1  0.006515  0.504884  0.507052  1
  H  H26  1  0.993485  0.004884  0.492948  1
  H  H27  1  0.784829  0.848931  0.403461  1
  H  H28  1  0.783931  0.645405  0.405069  1
  H  H29  1  0.604332  0.352153  0.274916  1
  H  H30  1  0.605836  0.144686  0.274470  1
  H  H31  1  0.104332  0.852153  0.225084  1
  H  H32  1  0.105836  0.644686  0.225530  1
  H  H33  1  0.284829  0.348931  0.096539  1
  H  H34  1  0.283931  0.145405  0.094931  1
  H  H35  1  0.493485  0.504884  0.007052  1
  O  O36  1  0.562488  0.444645  0.928680  1
  O  O37  1  0.558397  0.053088  0.928434  1
  O  O38  1  0.804032  0.747470  0.901003  1
  O  O39  1  0.260495  0.251308  0.887561  1
  O  O40  1  0.200107  0.936273  0.898608  1
  O  O41  1  0.207715  0.567312  0.898069  1
  O  O42  1  0.815873  0.248687  0.791065  1
  O  O43  1  0.421926  0.444189  0.770506  1
  O  O44  1  0.420233  0.055773  0.771172  1
  O  O45  1  0.921926  0.944189  0.729494  1
  O  O46  1  0.920233  0.555773  0.728828  1
  O  O47  1  0.315873  0.748687  0.708935  1
  O  O48  1  0.700107  0.436273  0.601392  1
  O  O49  1  0.707715  0.067312  0.601931  1
  O  O50  1  0.760495  0.751308  0.612439  1
  O  O51  1  0.304032  0.247470  0.598997  1
  O  O52  1  0.062488  0.944645  0.571320  1
  O  O53  1  0.058397  0.553088  0.571566  1
  O  O54  1  0.937512  0.444645  0.428680  1
  O  O55  1  0.941603  0.053088  0.428434  1
  O  O56  1  0.695968  0.747470  0.401003  1
  O  O57  1  0.239505  0.251308  0.387561  1
  O  O58  1  0.299893  0.936273  0.398608  1
  O  O59  1  0.292285  0.567312  0.398069  1
  O  O60  1  0.684127  0.248687  0.291065  1
  O  O61  1  0.078074  0.444189  0.270506  1
  O  O62  1  0.079767  0.055773  0.271172  1
  O  O63  1  0.578074  0.944189  0.229494  1
  O  O64  1  0.579767  0.555773  0.228828  1
  O  O65  1  0.184127  0.748687  0.208935  1
  O  O66  1  0.799893  0.436273  0.101392  1
  O  O67  1  0.792285  0.067312  0.101931  1
  O  O68  1  0.739505  0.751308  0.112439  1
  O  O69  1  0.195968  0.247470  0.098997  1
  O  O70  1  0.437512  0.944645  0.071320  1
  O  O71  1  0.441603  0.553088  0.071566  1
