# generated using pymatgen
data_YAlO3
_symmetry_space_group_name_H-M   'P 1'
_cell_length_a   5.24649488
_cell_length_b   5.24649488
_cell_length_c   5.24649488
_cell_angle_alpha   60.84808469
_cell_angle_beta   60.84808469
_cell_angle_gamma   60.84808469
_symmetry_Int_Tables_number   1
_chemical_formula_structural   YAlO3
_chemical_formula_sum   'Y2 Al2 O6'
_cell_volume   104.06847055
_cell_formula_units_Z   2
loop_
 _symmetry_equiv_pos_site_id
 _symmetry_equiv_pos_as_xyz
  1  'x, y, z'
loop_
 _atom_site_type_symbol
 _atom_site_label
 _atom_site_symmetry_multiplicity
 _atom_site_fract_x
 _atom_site_fract_y
 _atom_site_fract_z
 _atom_site_occupancy
  Y  Y0  1  0.750000  0.750000  0.750000  1
  Y  Y1  1  0.250000  0.250000  0.250000  1
  Al  Al2  1  0.000000  0.000000  0.000000  1
  Al  Al3  1  0.500000  0.500000  0.500000  1
  O  O4  1  0.675314  0.824686  0.250000  1
  O  O5  1  0.250000  0.675314  0.824686  1
  O  O6  1  0.175314  0.750000  0.324686  1
  O  O7  1  0.824686  0.250000  0.675314  1
  O  O8  1  0.750000  0.324686  0.175314  1
  O  O9  1  0.324686  0.175314  0.750000  1
