# generated using pymatgen
data_Li7Nb2Fe3O16
_symmetry_space_group_name_H-M   'P 1'
_cell_length_a   5.86963869
_cell_length_b   5.95173484
_cell_length_c   9.68441199
_cell_angle_alpha   90.80953151
_cell_angle_beta   90.60263709
_cell_angle_gamma   119.16341004
_symmetry_Int_Tables_number   1
_chemical_formula_structural   Li7Nb2Fe3O16
_chemical_formula_sum   'Li7 Nb2 Fe3 O16'
_cell_volume   295.34453356
_cell_formula_units_Z   1
loop_
 _symmetry_equiv_pos_site_id
 _symmetry_equiv_pos_as_xyz
  1  'x, y, z'
loop_
 _atom_site_type_symbol
 _atom_site_label
 _atom_site_symmetry_multiplicity
 _atom_site_fract_x
 _atom_site_fract_y
 _atom_site_fract_z
 _atom_site_occupancy
  Li  Li0  1  0.826877  0.164588  0.791193  1
  Li  Li1  1  0.686953  0.354765  0.100244  1
  Li  Li2  1  0.993357  0.993286  0.001678  1
  Li  Li3  1  0.995159  0.994352  0.508825  1
  Li  Li4  1  0.339062  0.165778  0.792573  1
  Li  Li5  1  0.167006  0.338444  0.286524  1
  Li  Li6  1  0.338094  0.678599  0.606696  1
  Nb  Nb7  1  0.643711  0.289147  0.515392  1
  Nb  Nb8  1  0.330910  0.660538  0.999198  1
  Fe  Fe9  1  0.823658  0.649547  0.782007  1
  Fe  Fe10  1  0.661057  0.823047  0.282305  1
  Fe  Fe11  1  0.168431  0.831276  0.283757  1
  O  O12  1  0.825607  0.156285  0.404584  1
  O  O13  1  0.514761  0.035805  0.646011  1
  O  O14  1  0.688436  0.369502  0.889101  1
  O  O15  1  0.974322  0.959176  0.697450  1
  O  O16  1  0.984549  0.979214  0.193500  1
  O  O17  1  0.321382  0.146270  0.402819  1
  O  O18  1  0.964526  0.505052  0.653666  1
  O  O19  1  0.534692  0.502853  0.657577  1
  O  O20  1  0.169120  0.330840  0.929285  1
  O  O21  1  0.816843  0.673404  0.396355  1
  O  O22  1  0.505750  0.544189  0.161109  1
  O  O23  1  0.051289  0.558029  0.158544  1
  O  O24  1  0.352391  0.694990  0.386015  1
  O  O25  1  0.662812  0.811115  0.901946  1
  O  O26  1  0.509507  0.974927  0.162268  1
  O  O27  1  0.150037  0.814983  0.901537  1
