# generated using pymatgen
data_Li19(CoO4)4
_symmetry_space_group_name_H-M   'P 1'
_cell_length_a   7.18369659
_cell_length_b   6.72528806
_cell_length_c   7.86916242
_cell_angle_alpha   90.00000000
_cell_angle_beta   90.14003502
_cell_angle_gamma   90.00000000
_symmetry_Int_Tables_number   1
_chemical_formula_structural   Li19(CoO4)4
_chemical_formula_sum   'Li19 Co4 O16'
_cell_volume   380.17721421
_cell_formula_units_Z   1
loop_
 _symmetry_equiv_pos_site_id
 _symmetry_equiv_pos_as_xyz
  1  'x, y, z'
loop_
 _atom_site_type_symbol
 _atom_site_label
 _atom_site_symmetry_multiplicity
 _atom_site_fract_x
 _atom_site_fract_y
 _atom_site_fract_z
 _atom_site_occupancy
  Li  Li0  1  0.502240  0.762782  0.980325  1
  Li  Li1  1  0.502240  0.237218  0.980325  1
  Li  Li2  1  0.754381  0.500000  0.084479  1
  Li  Li3  1  0.998208  0.739116  0.157921  1
  Li  Li4  1  0.998208  0.260884  0.157921  1
  Li  Li5  1  0.740258  0.000000  0.262791  1
  Li  Li6  1  0.462694  0.746337  0.340036  1
  Li  Li7  1  0.462694  0.253663  0.340036  1
  Li  Li8  1  0.247329  0.000000  0.414060  1
  Li  Li9  1  0.997582  0.246131  0.512255  1
  Li  Li10  1  0.997582  0.753869  0.512255  1
  Li  Li11  1  0.743534  0.000000  0.581683  1
  Li  Li12  1  0.515279  0.754005  0.658495  1
  Li  Li13  1  0.515279  0.245995  0.658495  1
  Li  Li14  1  0.257437  0.000000  0.729771  1
  Li  Li15  1  0.756891  0.500000  0.776496  1
  Li  Li16  1  0.021524  0.257165  0.836248  1
  Li  Li17  1  0.021524  0.742835  0.836248  1
  Li  Li18  1  0.264483  0.500000  0.938952  1
  Co  Co19  1  0.236198  0.000000  0.103206  1
  Co  Co20  1  0.729681  0.500000  0.397713  1
  Co  Co21  1  0.263443  0.500000  0.617508  1
  Co  Co22  1  0.776381  0.000000  0.890651  1
  O  O23  1  0.219405  0.756779  0.002212  1
  O  O24  1  0.219405  0.243221  0.002212  1
  O  O25  1  0.466112  0.000000  0.224162  1
  O  O26  1  0.552441  0.500000  0.242437  1
  O  O27  1  0.028257  0.000000  0.267251  1
  O  O28  1  0.940303  0.500000  0.288108  1
  O  O29  1  0.712164  0.749268  0.476167  1
  O  O30  1  0.712164  0.250732  0.476167  1
  O  O31  1  0.281830  0.756125  0.533587  1
  O  O32  1  0.281830  0.243875  0.533587  1
  O  O33  1  0.018447  0.500000  0.705173  1
  O  O34  1  0.969080  0.000000  0.717907  1
  O  O35  1  0.475669  0.500000  0.777433  1
  O  O36  1  0.537774  0.000000  0.783474  1
  O  O37  1  0.789722  0.746295  0.976436  1
  O  O38  1  0.789722  0.253705  0.976436  1
