# generated using pymatgen
data_Li4Si4Bi2O13
_symmetry_space_group_name_H-M   'P 1'
_cell_length_a   5.24521541
_cell_length_b   14.65977114
_cell_length_c   15.13730150
_cell_angle_alpha   90.00000000
_cell_angle_beta   90.00000000
_cell_angle_gamma   90.00000000
_symmetry_Int_Tables_number   1
_chemical_formula_structural   Li4Si4Bi2O13
_chemical_formula_sum   'Li16 Si16 Bi8 O52'
_cell_volume   1163.96247687
_cell_formula_units_Z   4
loop_
 _symmetry_equiv_pos_site_id
 _symmetry_equiv_pos_as_xyz
  1  'x, y, z'
loop_
 _atom_site_type_symbol
 _atom_site_label
 _atom_site_symmetry_multiplicity
 _atom_site_fract_x
 _atom_site_fract_y
 _atom_site_fract_z
 _atom_site_occupancy
  Li  Li0  1  0.850773  0.475125  0.221376  1
  Li  Li1  1  0.343911  0.403270  0.905375  1
  Li  Li2  1  0.351051  0.355882  0.116391  1
  Li  Li3  1  0.801268  0.275259  0.839107  1
  Li  Li4  1  0.301268  0.224741  0.339107  1
  Li  Li5  1  0.851051  0.144118  0.616391  1
  Li  Li6  1  0.843911  0.096730  0.405375  1
  Li  Li7  1  0.350773  0.024875  0.721376  1
  Li  Li8  1  0.649227  0.975125  0.221376  1
  Li  Li9  1  0.156089  0.903270  0.905375  1
  Li  Li10  1  0.148949  0.855882  0.116391  1
  Li  Li11  1  0.698732  0.775259  0.839107  1
  Li  Li12  1  0.198732  0.724741  0.339107  1
  Li  Li13  1  0.648949  0.644118  0.616391  1
  Li  Li14  1  0.656089  0.596730  0.405375  1
  Li  Li15  1  0.149227  0.524875  0.721376  1
  Si  Si16  1  0.832111  0.469089  0.998281  1
  Si  Si17  1  0.340661  0.445952  0.322567  1
  Si  Si18  1  0.146058  0.303637  0.723365  1
  Si  Si19  1  0.820828  0.276684  0.050367  1
  Si  Si20  1  0.320828  0.223316  0.550367  1
  Si  Si21  1  0.646058  0.196363  0.223365  1
  Si  Si22  1  0.840661  0.054048  0.822567  1
  Si  Si23  1  0.332111  0.030911  0.498281  1
  Si  Si24  1  0.667889  0.969089  0.998281  1
  Si  Si25  1  0.159339  0.945952  0.322567  1
  Si  Si26  1  0.353942  0.803637  0.723365  1
  Si  Si27  1  0.679172  0.776684  0.050367  1
  Si  Si28  1  0.179172  0.723316  0.550367  1
  Si  Si29  1  0.853942  0.696363  0.223365  1
  Si  Si30  1  0.659339  0.554048  0.822567  1
  Si  Si31  1  0.167889  0.530911  0.498281  1
  Bi  Bi32  1  0.643991  0.417307  0.631788  1
  Bi  Bi33  1  0.834974  0.332674  0.417086  1
  Bi  Bi34  1  0.334974  0.167326  0.917086  1
  Bi  Bi35  1  0.143991  0.082693  0.131788  1
  Bi  Bi36  1  0.856009  0.917307  0.631788  1
  Bi  Bi37  1  0.665026  0.832674  0.417086  1
  Bi  Bi38  1  0.165026  0.667326  0.917086  1
  Bi  Bi39  1  0.356009  0.582693  0.131788  1
  O  O40  1  0.575421  0.467212  0.058994  1
  O  O41  1  0.223438  0.458312  0.222675  1
  O  O42  1  0.750230  0.465920  0.890446  1
  O  O43  1  0.955050  0.452144  0.511896  1
  O  O44  1  0.652057  0.452022  0.324880  1
  O  O45  1  0.247929  0.402142  0.687500  1
  O  O46  1  0.987790  0.370941  0.022369  1
  O  O47  1  0.235634  0.349844  0.362712  1
  O  O48  1  0.836147  0.294448  0.715299  1
  O  O49  1  0.510505  0.308131  0.530426  1
  O  O50  1  0.763310  0.281316  0.159168  1
  O  O51  1  0.223611  0.295230  0.828663  1
  O  O52  1  0.552170  0.281272  0.996128  1
  O  O53  1  0.052170  0.218728  0.496128  1
  O  O54  1  0.723611  0.204770  0.328663  1
  O  O55  1  0.263310  0.218684  0.659168  1
  O  O56  1  0.010505  0.191869  0.030426  1
  O  O57  1  0.336147  0.205552  0.215299  1
  O  O58  1  0.735634  0.150156  0.862712  1
  O  O59  1  0.487790  0.129059  0.522369  1
  O  O60  1  0.747929  0.097858  0.187500  1
  O  O61  1  0.152057  0.047978  0.824880  1
  O  O62  1  0.455050  0.047856  0.011896  1
  O  O63  1  0.250230  0.034080  0.390446  1
  O  O64  1  0.723438  0.041688  0.722675  1
  O  O65  1  0.075421  0.032788  0.558994  1
  O  O66  1  0.924579  0.967212  0.058994  1
  O  O67  1  0.276562  0.958312  0.222675  1
  O  O68  1  0.749770  0.965920  0.890446  1
  O  O69  1  0.544950  0.952144  0.511896  1
  O  O70  1  0.847943  0.952022  0.324880  1
  O  O71  1  0.252071  0.902142  0.687500  1
  O  O72  1  0.512210  0.870941  0.022369  1
  O  O73  1  0.264366  0.849844  0.362712  1
  O  O74  1  0.663853  0.794448  0.715299  1
  O  O75  1  0.989495  0.808131  0.530426  1
  O  O76  1  0.736690  0.781316  0.159168  1
  O  O77  1  0.276389  0.795230  0.828663  1
  O  O78  1  0.947830  0.781272  0.996128  1
  O  O79  1  0.447830  0.718728  0.496128  1
  O  O80  1  0.776389  0.704770  0.328663  1
  O  O81  1  0.236690  0.718684  0.659168  1
  O  O82  1  0.489495  0.691869  0.030426  1
  O  O83  1  0.163853  0.705552  0.215299  1
  O  O84  1  0.764366  0.650156  0.862712  1
  O  O85  1  0.012210  0.629059  0.522369  1
  O  O86  1  0.752071  0.597858  0.187500  1
  O  O87  1  0.347943  0.547978  0.824880  1
  O  O88  1  0.044950  0.547856  0.011896  1
  O  O89  1  0.249770  0.534080  0.390446  1
  O  O90  1  0.776562  0.541688  0.722675  1
  O  O91  1  0.424579  0.532788  0.558994  1
