# generated using pymatgen
data_W7(OF5)6
_symmetry_space_group_name_H-M   'P 1'
_cell_length_a   9.27907653
_cell_length_b   9.49051336
_cell_length_c   9.53198796
_cell_angle_alpha   115.50565993
_cell_angle_beta   100.21306286
_cell_angle_gamma   99.91020706
_symmetry_Int_Tables_number   1
_chemical_formula_structural   W7(OF5)6
_chemical_formula_sum   'W7 O6 F30'
_cell_volume   715.84376327
_cell_formula_units_Z   1
loop_
 _symmetry_equiv_pos_site_id
 _symmetry_equiv_pos_as_xyz
  1  'x, y, z'
loop_
 _atom_site_type_symbol
 _atom_site_label
 _atom_site_symmetry_multiplicity
 _atom_site_fract_x
 _atom_site_fract_y
 _atom_site_fract_z
 _atom_site_occupancy
  W  W0  1  0.244667  0.075643  0.394558  1
  W  W1  1  0.000000  0.000000  0.000000  1
  W  W2  1  0.771721  0.242126  0.241110  1
  W  W3  1  0.751567  0.602995  0.916357  1
  W  W4  1  0.248433  0.397005  0.083643  1
  W  W5  1  0.228279  0.757874  0.758890  1
  W  W6  1  0.755333  0.924357  0.605442  1
  O  O7  1  0.881940  0.088192  0.148670  1
  O  O8  1  0.168928  0.047243  0.180634  1
  O  O9  1  0.920031  0.786359  0.977360  1
  O  O10  1  0.079969  0.213641  0.022640  1
  O  O11  1  0.831072  0.952757  0.819366  1
  O  O12  1  0.118060  0.911808  0.851330  1
  F  F13  1  0.939542  0.076952  0.648094  1
  F  F14  1  0.661770  0.092908  0.680358  1
  F  F15  1  0.301277  0.098692  0.604350  1
  F  F16  1  0.591764  0.074928  0.171143  1
  F  F17  1  0.819303  0.241878  0.441281  1
  F  F18  1  0.870475  0.456018  0.861330  1
  F  F19  1  0.203181  0.371274  0.872074  1
  F  F20  1  0.428652  0.225964  0.436648  1
  F  F21  1  0.575167  0.433826  0.852941  1
  F  F22  1  0.152851  0.246100  0.474045  1
  F  F23  1  0.723905  0.244083  0.040863  1
  F  F24  1  0.952405  0.411262  0.314079  1
  F  F25  1  0.666377  0.398857  0.318399  1
  F  F26  1  0.705633  0.573084  0.702765  1
  F  F27  1  0.368653  0.250203  0.029183  1
  F  F28  1  0.631347  0.749797  0.970817  1
  F  F29  1  0.294367  0.426916  0.297235  1
  F  F30  1  0.333623  0.601143  0.681601  1
  F  F31  1  0.047595  0.588738  0.685921  1
  F  F32  1  0.276095  0.755917  0.959137  1
  F  F33  1  0.847149  0.753900  0.525955  1
  F  F34  1  0.424833  0.566174  0.147059  1
  F  F35  1  0.571348  0.774036  0.563352  1
  F  F36  1  0.796819  0.628726  0.127926  1
  F  F37  1  0.129525  0.543982  0.138670  1
  F  F38  1  0.180697  0.758122  0.558719  1
  F  F39  1  0.408236  0.925072  0.828857  1
  F  F40  1  0.698723  0.901308  0.395650  1
  F  F41  1  0.338230  0.907092  0.319642  1
  F  F42  1  0.060458  0.923048  0.351906  1
