# generated using pymatgen
data_SmBO3
_symmetry_space_group_name_H-M   'P 1'
_cell_length_a   4.05241460
_cell_length_b   4.05241460
_cell_length_c   8.81102350
_cell_angle_alpha   90.00000000
_cell_angle_beta   90.00000000
_cell_angle_gamma   117.36993162
_symmetry_Int_Tables_number   1
_chemical_formula_structural   SmBO3
_chemical_formula_sum   'Sm2 B2 O6'
_cell_volume   128.49754575
_cell_formula_units_Z   2
loop_
 _symmetry_equiv_pos_site_id
 _symmetry_equiv_pos_as_xyz
  1  'x, y, z'
loop_
 _atom_site_type_symbol
 _atom_site_label
 _atom_site_symmetry_multiplicity
 _atom_site_fract_x
 _atom_site_fract_y
 _atom_site_fract_z
 _atom_site_occupancy
  Sm  Sm0  1  0.056053  0.056053  0.500000  1
  Sm  Sm1  1  0.056053  0.056053  0.000000  1
  B  B2  1  0.499208  0.756683  0.750000  1
  B  B3  1  0.756683  0.499208  0.250000  1
  O  O4  1  0.332346  0.675197  0.606915  1
  O  O5  1  0.332346  0.675197  0.893085  1
  O  O6  1  0.880224  0.947758  0.750000  1
  O  O7  1  0.675197  0.332346  0.106915  1
  O  O8  1  0.675197  0.332346  0.393085  1
  O  O9  1  0.947758  0.880224  0.250000  1
