# generated using pymatgen
data_Cu4OF6
_symmetry_space_group_name_H-M   'P 1'
_cell_length_a   5.51738207
_cell_length_b   7.30063194
_cell_length_c   7.31495764
_cell_angle_alpha   116.76358491
_cell_angle_beta   95.12665598
_cell_angle_gamma   94.42721195
_symmetry_Int_Tables_number   1
_chemical_formula_structural   Cu4OF6
_chemical_formula_sum   'Cu8 O2 F12'
_cell_volume   259.73711375
_cell_formula_units_Z   2
loop_
 _symmetry_equiv_pos_site_id
 _symmetry_equiv_pos_as_xyz
  1  'x, y, z'
loop_
 _atom_site_type_symbol
 _atom_site_label
 _atom_site_symmetry_multiplicity
 _atom_site_fract_x
 _atom_site_fract_y
 _atom_site_fract_z
 _atom_site_occupancy
  Cu  Cu0  1  0.507998  0.400441  0.139589  1
  Cu  Cu1  1  0.530129  0.777499  0.137756  1
  Cu  Cu2  1  0.990342  0.625037  0.308064  1
  Cu  Cu3  1  0.562835  0.744827  0.603747  1
  Cu  Cu4  1  0.006142  0.156634  0.393519  1
  Cu  Cu5  1  0.030084  0.128881  0.764406  1
  Cu  Cu6  1  0.486656  0.300379  0.624287  1
  Cu  Cu7  1  0.064938  0.606525  0.747803  1
  O  O8  1  0.653888  0.673453  0.330110  1
  O  O9  1  0.152076  0.330914  0.671897  1
  F  F10  1  0.863060  0.329702  0.162602  1
  F  F11  1  0.228231  0.595220  0.091714  1
  F  F12  1  0.833500  0.930179  0.155677  1
  F  F13  1  0.268748  0.552855  0.459033  1
  F  F14  1  0.150851  0.899807  0.472219  1
  F  F15  1  0.360008  0.150656  0.328327  1
  F  F16  1  0.897069  0.859706  0.768051  1
  F  F17  1  0.723673  0.089034  0.593639  1
  F  F18  1  0.766071  0.458818  0.557831  1
  F  F19  1  0.327730  0.155125  0.929038  1
  F  F20  1  0.643357  0.465485  0.901066  1
  F  F21  1  0.399534  0.769118  0.859624  1
