# generated using pymatgen
data_LiV2P4(HO8)2
_symmetry_space_group_name_H-M   'P 1'
_cell_length_a   7.34455044
_cell_length_b   9.23554505
_cell_length_c   9.28556035
_cell_angle_alpha   116.39173078
_cell_angle_beta   97.59068876
_cell_angle_gamma   97.37639845
_symmetry_Int_Tables_number   1
_chemical_formula_structural   LiV2P4(HO8)2
_chemical_formula_sum   'Li2 V4 P8 H4 O32'
_cell_volume   546.70132541
_cell_formula_units_Z   2
loop_
 _symmetry_equiv_pos_site_id
 _symmetry_equiv_pos_as_xyz
  1  'x, y, z'
loop_
 _atom_site_type_symbol
 _atom_site_label
 _atom_site_symmetry_multiplicity
 _atom_site_fract_x
 _atom_site_fract_y
 _atom_site_fract_z
 _atom_site_occupancy
  Li  Li0  1  0.649132  0.731368  0.363028  1
  Li  Li1  1  0.350965  0.263077  0.633475  1
  V  V2  1  0.996193  0.499082  0.999646  1
  V  V3  1  0.502351  0.499857  0.500670  1
  V  V4  1  0.503650  0.000214  0.999645  1
  V  V5  1  0.997884  0.000521  0.499847  1
  P  P6  1  0.770929  0.885969  0.740793  1
  P  P7  1  0.231528  0.611522  0.764233  1
  P  P8  1  0.258700  0.734293  0.385820  1
  P  P9  1  0.265481  0.238174  0.893583  1
  P  P10  1  0.733884  0.261793  0.614066  1
  P  P11  1  0.729496  0.758011  0.106857  1
  P  P12  1  0.774657  0.388327  0.241203  1
  P  P13  1  0.235490  0.112989  0.261272  1
  H  H14  1  0.486760  0.979498  0.487193  1
  H  H15  1  0.492140  0.484270  0.991498  1
  H  H16  1  0.011272  0.511951  0.519964  1
  H  H17  1  0.008712  0.010120  0.016222  1
  O  O18  1  0.349472  0.790888  0.851724  1
  O  O19  1  0.173686  0.567329  0.897392  1
  O  O20  1  0.947986  0.910123  0.856149  1
  O  O21  1  0.859973  0.662347  0.995934  1
  O  O22  1  0.135229  0.837221  0.497021  1
  O  O23  1  0.053877  0.598904  0.649661  1
  O  O24  1  0.807897  0.920142  0.596336  1
  O  O25  1  0.650058  0.704925  0.652207  1
  O  O26  1  0.443598  0.849786  0.402323  1
  O  O27  1  0.445738  0.351976  0.902984  1
  O  O28  1  0.366796  0.002643  0.165483  1
  O  O29  1  0.356490  0.492384  0.670358  1
  O  O30  1  0.315138  0.605258  0.432124  1
  O  O31  1  0.321672  0.104896  0.937569  1
  O  O32  1  0.161572  0.157752  0.711749  1
  O  O33  1  0.147563  0.653424  0.205962  1
  O  O34  1  0.851628  0.346558  0.794589  1
  O  O35  1  0.838077  0.841722  0.288341  1
  O  O36  1  0.678194  0.893533  0.062278  1
  O  O37  1  0.687261  0.394635  0.568317  1
  O  O38  1  0.642548  0.504515  0.329062  1
  O  O39  1  0.633451  0.994898  0.834211  1
  O  O40  1  0.555052  0.146399  0.595597  1
  O  O41  1  0.553523  0.643724  0.095461  1
  O  O42  1  0.351953  0.294243  0.348592  1
  O  O43  1  0.191972  0.078144  0.403252  1
  O  O44  1  0.948607  0.404542  0.355370  1
  O  O45  1  0.865412  0.163337  0.505948  1
  O  O46  1  0.139563  0.336580  0.005186  1
  O  O47  1  0.052969  0.092838  0.149298  1
  O  O48  1  0.826830  0.432711  0.104106  1
  O  O49  1  0.652525  0.208062  0.147629  1
