# generated using pymatgen
data_BaCaI4
_symmetry_space_group_name_H-M   'P 1'
_cell_length_a   8.03954823
_cell_length_b   8.19251693
_cell_length_c   17.42505687
_cell_angle_alpha   90.00000000
_cell_angle_beta   90.00000000
_cell_angle_gamma   90.00000000
_symmetry_Int_Tables_number   1
_chemical_formula_structural   BaCaI4
_chemical_formula_sum   'Ba4 Ca4 I16'
_cell_volume   1147.68629779
_cell_formula_units_Z   4
loop_
 _symmetry_equiv_pos_site_id
 _symmetry_equiv_pos_as_xyz
  1  'x, y, z'
loop_
 _atom_site_type_symbol
 _atom_site_label
 _atom_site_symmetry_multiplicity
 _atom_site_fract_x
 _atom_site_fract_y
 _atom_site_fract_z
 _atom_site_occupancy
  Ba  Ba0  1  0.250000  0.000000  0.136022  1
  Ba  Ba1  1  0.750000  0.000000  0.863978  1
  Ba  Ba2  1  0.250000  0.500000  0.636022  1
  Ba  Ba3  1  0.750000  0.500000  0.363978  1
  Ca  Ca4  1  0.250000  0.000000  0.412303  1
  Ca  Ca5  1  0.750000  0.000000  0.587697  1
  Ca  Ca6  1  0.750000  0.500000  0.087697  1
  Ca  Ca7  1  0.250000  0.500000  0.912303  1
  I  I8  1  0.023868  0.158981  0.289282  1
  I  I9  1  0.523868  0.158981  0.710718  1
  I  I10  1  0.998146  0.249489  0.018454  1
  I  I11  1  0.498146  0.249489  0.981546  1
  I  I12  1  0.498146  0.250511  0.481546  1
  I  I13  1  0.998146  0.250511  0.518454  1
  I  I14  1  0.523868  0.341019  0.210718  1
  I  I15  1  0.023868  0.341019  0.789282  1
  I  I16  1  0.976132  0.658981  0.210718  1
  I  I17  1  0.476132  0.658981  0.789282  1
  I  I18  1  0.001854  0.749489  0.481546  1
  I  I19  1  0.501854  0.749489  0.518454  1
  I  I20  1  0.501854  0.750511  0.018454  1
  I  I21  1  0.001854  0.750511  0.981546  1
  I  I22  1  0.976132  0.841019  0.710718  1
  I  I23  1  0.476132  0.841019  0.289282  1
