# generated using pymatgen
data_Li4Fe2SiO7
_symmetry_space_group_name_H-M   'P 1'
_cell_length_a   4.98347758
_cell_length_b   5.03850814
_cell_length_c   5.11994189
_cell_angle_alpha   95.36824389
_cell_angle_beta   100.49035851
_cell_angle_gamma   101.81746474
_symmetry_Int_Tables_number   1
_chemical_formula_structural   Li4Fe2SiO7
_chemical_formula_sum   'Li4 Fe2 Si1 O7'
_cell_volume   122.58136488
_cell_formula_units_Z   1
loop_
 _symmetry_equiv_pos_site_id
 _symmetry_equiv_pos_as_xyz
  1  'x, y, z'
loop_
 _atom_site_type_symbol
 _atom_site_label
 _atom_site_symmetry_multiplicity
 _atom_site_fract_x
 _atom_site_fract_y
 _atom_site_fract_z
 _atom_site_occupancy
  Li  Li0  1  0.074981  0.651251  0.794281  1
  Li  Li1  1  0.358357  0.245469  0.949973  1
  Li  Li2  1  0.641643  0.754531  0.050027  1
  Li  Li3  1  0.925019  0.348749  0.205719  1
  Fe  Fe4  1  0.199266  0.918009  0.341107  1
  Fe  Fe5  1  0.800734  0.081991  0.658893  1
  Si  Si6  1  0.500000  0.500000  0.500000  1
  O  O7  1  0.305938  0.581507  0.194123  1
  O  O8  1  0.000000  0.000000  0.000000  1
  O  O9  1  0.168723  0.276226  0.560912  1
  O  O10  1  0.436996  0.801818  0.676656  1
  O  O11  1  0.563004  0.198182  0.323344  1
  O  O12  1  0.831277  0.723774  0.439088  1
  O  O13  1  0.694062  0.418493  0.805877  1
