# generated using pymatgen
data_Ba2Sr7I18
_symmetry_space_group_name_H-M   'P 1'
_cell_length_a   10.74593562
_cell_length_b   11.52290983
_cell_length_c   12.09140500
_cell_angle_alpha   79.22676725
_cell_angle_beta   63.64343551
_cell_angle_gamma   83.79392717
_symmetry_Int_Tables_number   1
_chemical_formula_structural   Ba2Sr7I18
_chemical_formula_sum   'Ba2 Sr7 I18'
_cell_volume   1317.39187491
_cell_formula_units_Z   1
loop_
 _symmetry_equiv_pos_site_id
 _symmetry_equiv_pos_as_xyz
  1  'x, y, z'
loop_
 _atom_site_type_symbol
 _atom_site_label
 _atom_site_symmetry_multiplicity
 _atom_site_fract_x
 _atom_site_fract_y
 _atom_site_fract_z
 _atom_site_occupancy
  Ba  Ba0  1  0.530112  0.389418  0.780522  1
  Ba  Ba1  1  0.469888  0.610582  0.219478  1
  Sr  Sr2  1  0.326653  0.824503  0.880540  1
  Sr  Sr3  1  0.000000  0.500000  0.000000  1
  Sr  Sr4  1  0.816530  0.779138  0.384448  1
  Sr  Sr5  1  0.114268  0.112044  0.294618  1
  Sr  Sr6  1  0.885732  0.887956  0.705382  1
  Sr  Sr7  1  0.183470  0.220862  0.615552  1
  Sr  Sr8  1  0.673347  0.175497  0.119460  1
  I  I9  1  0.385652  0.098914  0.748133  1
  I  I10  1  0.518867  0.690142  0.635025  1
  I  I11  1  0.769637  0.551386  0.278460  1
  I  I12  1  0.987966  0.211478  0.086827  1
  I  I13  1  0.794912  0.029594  0.486484  1
  I  I14  1  0.588297  0.816795  0.946438  1
  I  I15  1  0.942641  0.653805  0.578999  1
  I  I16  1  0.160113  0.844076  0.197460  1
  I  I17  1  0.708282  0.459662  0.971521  1
  I  I18  1  0.291718  0.540338  0.028479  1
  I  I19  1  0.839887  0.155924  0.802540  1
  I  I20  1  0.057359  0.346195  0.421001  1
  I  I21  1  0.411703  0.183205  0.053562  1
  I  I22  1  0.205088  0.970406  0.513516  1
  I  I23  1  0.012034  0.788522  0.913173  1
  I  I24  1  0.230363  0.448614  0.721540  1
  I  I25  1  0.481133  0.309858  0.364975  1
  I  I26  1  0.614348  0.901086  0.251867  1
