# generated using pymatgen
data_YbCO3
_symmetry_space_group_name_H-M   'P 1'
_cell_length_a   4.90863512
_cell_length_b   5.67710591
_cell_length_c   7.89878667
_cell_angle_alpha   90.00000000
_cell_angle_beta   90.00000000
_cell_angle_gamma   90.00000000
_symmetry_Int_Tables_number   1
_chemical_formula_structural   YbCO3
_chemical_formula_sum   'Yb4 C4 O12'
_cell_volume   220.11423585
_cell_formula_units_Z   4
loop_
 _symmetry_equiv_pos_site_id
 _symmetry_equiv_pos_as_xyz
  1  'x, y, z'
loop_
 _atom_site_type_symbol
 _atom_site_label
 _atom_site_symmetry_multiplicity
 _atom_site_fract_x
 _atom_site_fract_y
 _atom_site_fract_z
 _atom_site_occupancy
  Yb  Yb0  1  0.750000  0.759282  0.415314  1
  Yb  Yb1  1  0.250000  0.740718  0.915314  1
  Yb  Yb2  1  0.750000  0.259282  0.084686  1
  Yb  Yb3  1  0.250000  0.240718  0.584686  1
  C  C4  1  0.750000  0.915494  0.761615  1
  C  C5  1  0.250000  0.584506  0.261615  1
  C  C6  1  0.750000  0.415494  0.738385  1
  C  C7  1  0.250000  0.084506  0.238385  1
  O  O8  1  0.522897  0.914484  0.677759  1
  O  O9  1  0.977103  0.914484  0.677759  1
  O  O10  1  0.750000  0.905967  0.924929  1
  O  O11  1  0.250000  0.594033  0.424929  1
  O  O12  1  0.477103  0.585516  0.177759  1
  O  O13  1  0.022897  0.585516  0.177759  1
  O  O14  1  0.977103  0.414484  0.822241  1
  O  O15  1  0.522897  0.414484  0.822241  1
  O  O16  1  0.750000  0.405967  0.575071  1
  O  O17  1  0.250000  0.094033  0.075071  1
  O  O18  1  0.022897  0.085516  0.322241  1
  O  O19  1  0.477103  0.085516  0.322241  1
