# generated using pymatgen
data_Li7VO5F
_symmetry_space_group_name_H-M   'P 1'
_cell_length_a   5.25832315
_cell_length_b   5.37102552
_cell_length_c   5.82679642
_cell_angle_alpha   90.88876845
_cell_angle_beta   116.12254065
_cell_angle_gamma   116.95884920
_symmetry_Int_Tables_number   1
_chemical_formula_structural   Li7VO5F
_chemical_formula_sum   'Li7 V1 O5 F1'
_cell_volume   126.85116300
_cell_formula_units_Z   1
loop_
 _symmetry_equiv_pos_site_id
 _symmetry_equiv_pos_as_xyz
  1  'x, y, z'
loop_
 _atom_site_type_symbol
 _atom_site_label
 _atom_site_symmetry_multiplicity
 _atom_site_fract_x
 _atom_site_fract_y
 _atom_site_fract_z
 _atom_site_occupancy
  Li  Li0  1  0.636605  0.102990  0.383651  1
  Li  Li1  1  0.739315  0.509969  0.632597  1
  Li  Li2  1  0.677897  0.342303  0.009249  1
  Li  Li3  1  0.282970  0.627847  0.981069  1
  Li  Li4  1  0.886900  0.794030  0.363165  1
  Li  Li5  1  0.217324  0.465040  0.369929  1
  Li  Li6  1  0.420992  0.913921  0.657854  1
  V  V7  1  0.051933  0.043429  0.010087  1
  O  O8  1  0.847261  0.243562  0.772576  1
  O  O9  1  0.477492  0.389939  0.234970  1
  O  O10  1  0.836600  0.072369  0.188600  1
  O  O11  1  0.115529  0.892161  0.764303  1
  O  O12  1  0.178177  0.785977  0.252401  1
  F  F13  1  0.499267  0.599322  0.745381  1
