# generated using pymatgen
data_Li3Co3OF7
_symmetry_space_group_name_H-M   'P 1'
_cell_length_a   6.03939058
_cell_length_b   6.03939058
_cell_length_c   6.03208218
_cell_angle_alpha   60.65918264
_cell_angle_beta   119.34081736
_cell_angle_gamma   119.21868646
_symmetry_Int_Tables_number   1
_chemical_formula_structural   Li3Co3OF7
_chemical_formula_sum   'Li3 Co3 O1 F7'
_cell_volume   158.03162343
_cell_formula_units_Z   1
loop_
 _symmetry_equiv_pos_site_id
 _symmetry_equiv_pos_as_xyz
  1  'x, y, z'
loop_
 _atom_site_type_symbol
 _atom_site_label
 _atom_site_symmetry_multiplicity
 _atom_site_fract_x
 _atom_site_fract_y
 _atom_site_fract_z
 _atom_site_occupancy
  Li  Li0  1  0.616360  0.383640  0.354888  1
  Li  Li1  1  0.004998  0.995002  0.998262  1
  Li  Li2  1  0.626195  0.373805  0.882469  1
  Co  Co3  1  0.255965  0.744035  0.785168  1
  Co  Co4  1  0.616434  0.872798  0.359543  1
  Co  Co5  1  0.127202  0.383566  0.359543  1
  O  O6  1  0.382498  0.617502  0.164993  1
  F  F7  1  0.854563  0.620307  0.620502  1
  F  F8  1  0.379693  0.145437  0.620502  1
  F  F9  1  0.864132  0.135868  0.116041  1
  F  F10  1  0.867019  0.600740  0.132256  1
  F  F11  1  0.871239  0.128761  0.591589  1
  F  F12  1  0.399260  0.132981  0.132256  1
  F  F13  1  0.384444  0.615556  0.631995  1
