# generated using pymatgen
data_Na5WO5
_symmetry_space_group_name_H-M   'P 1'
_cell_length_a   5.87407491
_cell_length_b   5.87407491
_cell_length_c   10.31083329
_cell_angle_alpha   80.24689057
_cell_angle_beta   99.75310943
_cell_angle_gamma   66.54127398
_symmetry_Int_Tables_number   1
_chemical_formula_structural   Na5WO5
_chemical_formula_sum   'Na10 W2 O10'
_cell_volume   310.41715880
_cell_formula_units_Z   2
loop_
 _symmetry_equiv_pos_site_id
 _symmetry_equiv_pos_as_xyz
  1  'x, y, z'
loop_
 _atom_site_type_symbol
 _atom_site_label
 _atom_site_symmetry_multiplicity
 _atom_site_fract_x
 _atom_site_fract_y
 _atom_site_fract_z
 _atom_site_occupancy
  Na  Na0  1  0.722924  0.048752  0.417675  1
  Na  Na1  1  0.522825  0.221018  0.064652  1
  Na  Na2  1  0.597020  0.597020  0.250000  1
  Na  Na3  1  0.951248  0.277076  0.917675  1
  Na  Na4  1  0.778982  0.477175  0.564652  1
  Na  Na5  1  0.221018  0.522825  0.435348  1
  Na  Na6  1  0.048752  0.722924  0.082325  1
  Na  Na7  1  0.402980  0.402980  0.750000  1
  Na  Na8  1  0.477175  0.778982  0.935348  1
  Na  Na9  1  0.277076  0.951248  0.582325  1
  W  W10  1  0.143756  0.143756  0.250000  1
  W  W11  1  0.856244  0.856244  0.750000  1
  O  O12  1  0.831542  0.386092  0.111962  1
  O  O13  1  0.983966  0.275604  0.390124  1
  O  O14  1  0.613908  0.168458  0.611962  1
  O  O15  1  0.724396  0.016034  0.890124  1
  O  O16  1  0.338377  0.338377  0.250000  1
  O  O17  1  0.661623  0.661623  0.750000  1
  O  O18  1  0.275604  0.983966  0.109876  1
  O  O19  1  0.386092  0.831542  0.388038  1
  O  O20  1  0.016034  0.724396  0.609876  1
  O  O21  1  0.168458  0.613908  0.888038  1
