# generated using pymatgen
data_Mg7Mn5O12
_symmetry_space_group_name_H-M   'P 1'
_cell_length_a   3.08715506
_cell_length_b   3.08715506
_cell_length_c   30.38798341
_cell_angle_alpha   90.00000000
_cell_angle_beta   90.00000000
_cell_angle_gamma   120.00000000
_symmetry_Int_Tables_number   1
_chemical_formula_structural   Mg7Mn5O12
_chemical_formula_sum   'Mg7 Mn5 O12'
_cell_volume   250.81262895
_cell_formula_units_Z   1
loop_
 _symmetry_equiv_pos_site_id
 _symmetry_equiv_pos_as_xyz
  1  'x, y, z'
loop_
 _atom_site_type_symbol
 _atom_site_label
 _atom_site_symmetry_multiplicity
 _atom_site_fract_x
 _atom_site_fract_y
 _atom_site_fract_z
 _atom_site_occupancy
  Mg  Mg0  1  0.333333  0.666667  0.166484  1
  Mg  Mg1  1  0.333333  0.666667  0.418552  1
  Mg  Mg2  1  0.333333  0.666667  0.668095  1
  Mg  Mg3  1  0.666667  0.333333  0.586640  1
  Mg  Mg4  1  0.000000  0.000000  0.749779  1
  Mg  Mg5  1  0.333333  0.666667  0.912349  1
  Mg  Mg6  1  0.666667  0.333333  0.831287  1
  Mn  Mn7  1  0.000000  0.000000  0.996367  1
  Mn  Mn8  1  0.666667  0.333333  0.083893  1
  Mn  Mn9  1  0.000000  0.000000  0.248784  1
  Mn  Mn10  1  0.666667  0.333333  0.335535  1
  Mn  Mn11  1  0.000000  0.000000  0.502236  1
  O  O12  1  0.333333  0.666667  0.040294  1
  O  O13  1  0.000000  0.000000  0.127858  1
  O  O14  1  0.666667  0.333333  0.205053  1
  O  O15  1  0.333333  0.666667  0.292075  1
  O  O16  1  0.000000  0.000000  0.379522  1
  O  O17  1  0.666667  0.333333  0.457682  1
  O  O18  1  0.333333  0.666667  0.546914  1
  O  O19  1  0.000000  0.000000  0.627311  1
  O  O20  1  0.666667  0.333333  0.708938  1
  O  O21  1  0.333333  0.666667  0.790603  1
  O  O22  1  0.000000  0.000000  0.871894  1
  O  O23  1  0.666667  0.333333  0.951858  1
