# generated using pymatgen
data_Li4Cr2C4SO16
_symmetry_space_group_name_H-M   'P 1'
_cell_length_a   9.64607542
_cell_length_b   9.55069856
_cell_length_c   9.25610846
_cell_angle_alpha   61.69129961
_cell_angle_beta   60.65682204
_cell_angle_gamma   57.65187835
_symmetry_Int_Tables_number   1
_chemical_formula_structural   Li4Cr2C4SO16
_chemical_formula_sum   'Li8 Cr4 C8 S2 O32'
_cell_volume   601.38509333
_cell_formula_units_Z   2
loop_
 _symmetry_equiv_pos_site_id
 _symmetry_equiv_pos_as_xyz
  1  'x, y, z'
loop_
 _atom_site_type_symbol
 _atom_site_label
 _atom_site_symmetry_multiplicity
 _atom_site_fract_x
 _atom_site_fract_y
 _atom_site_fract_z
 _atom_site_occupancy
  Li  Li0  1  0.547715  0.952285  0.547715  1
  Li  Li1  1  0.953872  0.546128  0.546128  1
  Li  Li2  1  0.703872  0.296128  0.296128  1
  Li  Li3  1  0.297715  0.702285  0.297715  1
  Li  Li4  1  0.952285  0.547715  0.952285  1
  Li  Li5  1  0.546128  0.953872  0.953872  1
  Li  Li6  1  0.296128  0.703872  0.703872  1
  Li  Li7  1  0.702285  0.297715  0.702285  1
  Cr  Cr8  1  0.125000  0.125000  0.625000  1
  Cr  Cr9  1  0.125000  0.125000  0.125000  1
  Cr  Cr10  1  0.625000  0.125000  0.125000  1
  Cr  Cr11  1  0.125000  0.625000  0.125000  1
  C  C12  1  0.911186  0.916765  0.276112  1
  C  C13  1  0.333235  0.338814  0.354064  1
  C  C14  1  0.276112  0.895936  0.911186  1
  C  C15  1  0.895936  0.276112  0.916765  1
  C  C16  1  0.354064  0.973888  0.333235  1
  C  C17  1  0.973888  0.354064  0.338814  1
  C  C18  1  0.916765  0.911186  0.895936  1
  C  C19  1  0.338814  0.333235  0.973888  1
  S  S20  1  0.500000  0.500000  0.500000  1
  S  S21  1  0.750000  0.750000  0.750000  1
  O  O22  1  0.765671  0.934698  0.281864  1
  O  O23  1  0.578693  0.306319  0.556308  1
  O  O24  1  0.928337  0.045003  0.268004  1
  O  O25  1  0.204997  0.321663  0.491345  1
  O  O26  1  0.268004  0.758655  0.928337  1
  O  O27  1  0.484365  0.211238  0.336861  1
  O  O28  1  0.556308  0.558679  0.578693  1
  O  O29  1  0.306319  0.578693  0.558679  1
  O  O30  1  0.967536  0.336861  0.211238  1
  O  O31  1  0.758655  0.268004  0.045003  1
  O  O32  1  0.315302  0.484329  0.232233  1
  O  O33  1  0.558679  0.556308  0.306319  1
  O  O34  1  0.281864  0.017767  0.765671  1
  O  O35  1  0.017767  0.281864  0.934698  1
  O  O36  1  0.038762  0.765635  0.282464  1
  O  O37  1  0.336861  0.967536  0.484365  1
  O  O38  1  0.913139  0.282464  0.765635  1
  O  O39  1  0.211238  0.484365  0.967536  1
  O  O40  1  0.232233  0.968136  0.315302  1
  O  O41  1  0.968136  0.232233  0.484329  1
  O  O42  1  0.691321  0.693692  0.943681  1
  O  O43  1  0.934698  0.765671  0.017767  1
  O  O44  1  0.491345  0.981996  0.204997  1
  O  O45  1  0.282464  0.913139  0.038762  1
  O  O46  1  0.943681  0.671307  0.691321  1
  O  O47  1  0.693692  0.691321  0.671307  1
  O  O48  1  0.765635  0.038762  0.913139  1
  O  O49  1  0.981996  0.491345  0.321663  1
  O  O50  1  0.045003  0.928337  0.758655  1
  O  O51  1  0.321663  0.204997  0.981996  1
  O  O52  1  0.671307  0.943681  0.693692  1
  O  O53  1  0.484329  0.315302  0.968136  1
