# generated using pymatgen
data_LiCu5(PO4)2
_symmetry_space_group_name_H-M   'P 1'
_cell_length_a   5.52328821
_cell_length_b   6.25675057
_cell_length_c   10.47696245
_cell_angle_alpha   90.06286431
_cell_angle_beta   90.03082262
_cell_angle_gamma   90.00999104
_symmetry_Int_Tables_number   1
_chemical_formula_structural   LiCu5(PO4)2
_chemical_formula_sum   'Li2 Cu10 P4 O16'
_cell_volume   362.06088132
_cell_formula_units_Z   2
loop_
 _symmetry_equiv_pos_site_id
 _symmetry_equiv_pos_as_xyz
  1  'x, y, z'
loop_
 _atom_site_type_symbol
 _atom_site_label
 _atom_site_symmetry_multiplicity
 _atom_site_fract_x
 _atom_site_fract_y
 _atom_site_fract_z
 _atom_site_occupancy
  Li  Li0  1  0.674532  0.249177  0.496092  1
  Li  Li1  1  0.324878  0.749356  0.248277  1
  Cu  Cu2  1  0.798288  0.004456  0.750071  1
  Cu  Cu3  1  0.803215  0.996630  0.244793  1
  Cu  Cu4  1  0.657662  0.244939  0.000395  1
  Cu  Cu5  1  0.330161  0.258230  0.248715  1
  Cu  Cu6  1  0.349506  0.251331  0.751974  1
  Cu  Cu7  1  0.195960  0.495121  0.998847  1
  Cu  Cu8  1  0.201521  0.505101  0.495437  1
  Cu  Cu9  1  0.343313  0.743268  0.747194  1
  Cu  Cu10  1  0.654947  0.755470  0.496598  1
  Cu  Cu11  1  0.664940  0.756409  0.003352  1
  P  P12  1  0.171629  0.994068  0.003066  1
  P  P13  1  0.170645  0.004622  0.497101  1
  P  P14  1  0.827389  0.502740  0.254360  1
  P  P15  1  0.830416  0.496617  0.745942  1
  O  O16  1  0.176499  0.995599  0.645154  1
  O  O17  1  0.905066  0.015709  0.448600  1
  O  O18  1  0.180622  0.992516  0.150865  1
  O  O19  1  0.910396  0.993913  0.949466  1
  O  O20  1  0.320378  0.205468  0.450169  1
  O  O21  1  0.301655  0.199126  0.949283  1
  O  O22  1  0.698952  0.295604  0.199631  1
  O  O23  1  0.696363  0.297808  0.686133  1
  O  O24  1  0.824532  0.492712  0.893777  1
  O  O25  1  0.093605  0.496742  0.694769  1
  O  O26  1  0.818216  0.494622  0.402044  1
  O  O27  1  0.091846  0.514567  0.203873  1
  O  O28  1  0.699346  0.704378  0.695507  1
  O  O29  1  0.678098  0.701155  0.204491  1
  O  O30  1  0.298687  0.801799  0.436468  1
  O  O31  1  0.306742  0.790742  0.950151  1
