# generated using pymatgen
data_Bi16O25
_symmetry_space_group_name_H-M   'P 1'
_cell_length_a   9.67173319
_cell_length_b   9.67173319
_cell_length_c   9.67173319
_cell_angle_alpha   109.73066644
_cell_angle_beta   109.73066644
_cell_angle_gamma   108.95356588
_symmetry_Int_Tables_number   1
_chemical_formula_structural   Bi16O25
_chemical_formula_sum   'Bi16 O25'
_cell_volume   696.40915531
_cell_formula_units_Z   1
loop_
 _symmetry_equiv_pos_site_id
 _symmetry_equiv_pos_as_xyz
  1  'x, y, z'
loop_
 _atom_site_type_symbol
 _atom_site_label
 _atom_site_symmetry_multiplicity
 _atom_site_fract_x
 _atom_site_fract_y
 _atom_site_fract_z
 _atom_site_occupancy
  Bi  Bi0  1  0.494947  0.494947  0.748336  1
  Bi  Bi1  1  0.983106  0.983106  0.738921  1
  Bi  Bi2  1  0.763043  0.263193  0.760090  1
  Bi  Bi3  1  0.263193  0.763043  0.760090  1
  Bi  Bi4  1  0.755815  0.016894  1.000000  1
  Bi  Bi5  1  0.016894  0.755815  1.000000  1
  Bi  Bi6  1  0.505053  0.253389  1.000000  1
  Bi  Bi7  1  0.253389  0.505053  1.000000  1
  Bi  Bi8  1  0.002953  0.503103  0.239910  1
  Bi  Bi9  1  0.503103  0.002953  0.239910  1
  Bi  Bi10  1  0.746611  0.746611  0.251664  1
  Bi  Bi11  1  0.244185  0.244185  0.261079  1
  Bi  Bi12  1  0.236957  0.997047  0.500150  1
  Bi  Bi13  1  0.736807  0.496897  0.499850  1
  Bi  Bi14  1  0.997047  0.236957  0.500150  1
  Bi  Bi15  1  0.496897  0.736807  0.499850  1
  O  O16  1  0.202042  0.500000  0.702042  1
  O  O17  1  0.500000  0.202042  0.702042  1
  O  O18  1  0.707997  1.000000  0.707997  1
  O  O19  1  1.000000  0.707997  0.707997  1
  O  O20  1  0.753767  0.547754  0.799583  1
  O  O21  1  0.045816  0.246233  0.793987  1
  O  O22  1  0.547754  0.753767  0.799583  1
  O  O23  1  0.246233  0.045816  0.793987  1
  O  O24  1  0.533780  0.044944  0.000000  1
  O  O25  1  0.044944  0.533780  1.000000  1
  O  O26  1  0.296230  0.791061  1.000000  1
  O  O27  1  0.791061  0.296230  0.000000  1
  O  O28  1  1.000000  1.000000  0.000000  1
  O  O29  1  0.452246  0.251829  0.206013  1
  O  O30  1  0.954184  0.748171  0.200417  1
  O  O31  1  0.251829  0.452246  0.206013  1
  O  O32  1  0.748171  0.954184  0.200417  1
  O  O33  1  0.500000  0.797958  0.297958  1
  O  O34  1  0.292003  1.000000  0.292003  1
  O  O35  1  1.000000  0.292003  0.292003  1
  O  O36  1  0.797958  0.500000  0.297958  1
  O  O37  1  0.208939  0.208939  0.505169  1
  O  O38  1  0.703770  0.703770  0.494831  1
  O  O39  1  0.466220  0.466220  0.511164  1
  O  O40  1  0.955056  0.955056  0.488836  1
