# generated using pymatgen
data_Nb6CdO16
_symmetry_space_group_name_H-M   'P 1'
_cell_length_a   7.91001275
_cell_length_b   9.18434900
_cell_length_c   17.14183482
_cell_angle_alpha   90.00000000
_cell_angle_beta   90.00000000
_cell_angle_gamma   90.00000000
_symmetry_Int_Tables_number   1
_chemical_formula_structural   Nb6CdO16
_chemical_formula_sum   'Nb24 Cd4 O64'
_cell_volume   1245.32546180
_cell_formula_units_Z   4
loop_
 _symmetry_equiv_pos_site_id
 _symmetry_equiv_pos_as_xyz
  1  'x, y, z'
loop_
 _atom_site_type_symbol
 _atom_site_label
 _atom_site_symmetry_multiplicity
 _atom_site_fract_x
 _atom_site_fract_y
 _atom_site_fract_z
 _atom_site_occupancy
  Nb  Nb0  1  0.752355  0.811168  0.060639  1
  Nb  Nb1  1  0.247645  0.811168  0.060639  1
  Nb  Nb2  1  0.744077  0.396937  0.132775  1
  Nb  Nb3  1  0.255923  0.396937  0.132775  1
  Nb  Nb4  1  0.250149  0.688944  0.250716  1
  Nb  Nb5  1  0.749851  0.688944  0.250716  1
  Nb  Nb6  1  0.752502  0.052050  0.248198  1
  Nb  Nb7  1  0.247498  0.052050  0.248198  1
  Nb  Nb8  1  0.746353  0.398929  0.365518  1
  Nb  Nb9  1  0.253647  0.398929  0.365518  1
  Nb  Nb10  1  0.752763  0.813831  0.439997  1
  Nb  Nb11  1  0.247237  0.813831  0.439997  1
  Nb  Nb12  1  0.752355  0.188832  0.560639  1
  Nb  Nb13  1  0.247645  0.188832  0.560639  1
  Nb  Nb14  1  0.744077  0.603063  0.632775  1
  Nb  Nb15  1  0.255923  0.603063  0.632775  1
  Nb  Nb16  1  0.749851  0.311056  0.750716  1
  Nb  Nb17  1  0.752502  0.947950  0.748198  1
  Nb  Nb18  1  0.247498  0.947950  0.748198  1
  Nb  Nb19  1  0.250149  0.311056  0.750716  1
  Nb  Nb20  1  0.746353  0.601071  0.865518  1
  Nb  Nb21  1  0.253647  0.601071  0.865518  1
  Nb  Nb22  1  0.752763  0.186169  0.939997  1
  Nb  Nb23  1  0.247237  0.186169  0.939997  1
  Cd  Cd24  1  0.000000  0.503189  0.000642  1
  Cd  Cd25  1  0.500000  0.095768  0.409610  1
  Cd  Cd26  1  0.000000  0.496811  0.500642  1
  Cd  Cd27  1  0.500000  0.904232  0.909610  1
  O  O28  1  0.748449  0.991880  0.993242  1
  O  O29  1  0.251551  0.991880  0.993242  1
  O  O30  1  0.754310  0.338182  0.020838  1
  O  O31  1  0.245690  0.338182  0.020838  1
  O  O32  1  0.000000  0.818776  0.062025  1
  O  O33  1  0.500000  0.818573  0.048051  1
  O  O34  1  0.000000  0.415072  0.122341  1
  O  O35  1  0.500000  0.404339  0.127571  1
  O  O36  1  0.747393  0.621536  0.133107  1
  O  O37  1  0.252607  0.621536  0.133107  1
  O  O38  1  0.750273  0.197682  0.168414  1
  O  O39  1  0.249727  0.197682  0.168414  1
  O  O40  1  0.744684  0.877252  0.174421  1
  O  O41  1  0.255316  0.877252  0.174421  1
  O  O42  1  0.246478  0.454276  0.250560  1
  O  O43  1  0.500000  0.688586  0.250558  1
  O  O44  1  0.753522  0.454276  0.250560  1
  O  O45  1  0.000000  0.690896  0.250129  1
  O  O46  1  0.000000  0.053311  0.252464  1
  O  O47  1  0.500000  0.046012  0.257851  1
  O  O48  1  0.753780  0.873686  0.325638  1
  O  O49  1  0.246220  0.873686  0.325638  1
  O  O50  1  0.736667  0.189817  0.338361  1
  O  O51  1  0.263333  0.189817  0.338361  1
  O  O52  1  0.745206  0.619659  0.368579  1
  O  O53  1  0.254794  0.619659  0.368579  1
  O  O54  1  0.000000  0.411702  0.374899  1
  O  O55  1  0.500000  0.396253  0.375629  1
  O  O56  1  0.000000  0.814676  0.441323  1
  O  O57  1  0.500000  0.836378  0.437206  1
  O  O58  1  0.762668  0.340843  0.479561  1
  O  O59  1  0.237332  0.340843  0.479561  1
  O  O60  1  0.748449  0.008120  0.493242  1
  O  O61  1  0.251551  0.008120  0.493242  1
  O  O62  1  0.754310  0.661818  0.520838  1
  O  O63  1  0.245690  0.661818  0.520838  1
  O  O64  1  0.000000  0.181224  0.562025  1
  O  O65  1  0.500000  0.181427  0.548051  1
  O  O66  1  0.000000  0.584928  0.622341  1
  O  O67  1  0.500000  0.595661  0.627571  1
  O  O68  1  0.747393  0.378464  0.633107  1
  O  O69  1  0.252607  0.378464  0.633107  1
  O  O70  1  0.750273  0.802318  0.668414  1
  O  O71  1  0.249727  0.802318  0.668414  1
  O  O72  1  0.744684  0.122748  0.674421  1
  O  O73  1  0.255316  0.122748  0.674421  1
  O  O74  1  0.753522  0.545724  0.750560  1
  O  O75  1  0.000000  0.309104  0.750129  1
  O  O76  1  0.000000  0.946689  0.752464  1
  O  O77  1  0.246478  0.545724  0.750560  1
  O  O78  1  0.500000  0.311414  0.750558  1
  O  O79  1  0.500000  0.953988  0.757851  1
  O  O80  1  0.753780  0.126314  0.825638  1
  O  O81  1  0.246220  0.126314  0.825638  1
  O  O82  1  0.736667  0.810183  0.838361  1
  O  O83  1  0.263333  0.810183  0.838361  1
  O  O84  1  0.745206  0.380341  0.868579  1
  O  O85  1  0.254794  0.380341  0.868579  1
  O  O86  1  0.000000  0.588298  0.874899  1
  O  O87  1  0.500000  0.603747  0.875629  1
  O  O88  1  0.000000  0.185324  0.941323  1
  O  O89  1  0.500000  0.163622  0.937206  1
  O  O90  1  0.762668  0.659157  0.979561  1
  O  O91  1  0.237332  0.659157  0.979561  1
