# generated using pymatgen
data_LiVSiO4
_symmetry_space_group_name_H-M   'P 1'
_cell_length_a   5.73120611
_cell_length_b   5.73120611
_cell_length_c   5.73120611
_cell_angle_alpha   121.77119146
_cell_angle_beta   117.70260603
_cell_angle_gamma   90.49213578
_symmetry_Int_Tables_number   1
_chemical_formula_structural   LiVSiO4
_chemical_formula_sum   'Li2 V2 Si2 O8'
_cell_volume   133.42939082
_cell_formula_units_Z   2
loop_
 _symmetry_equiv_pos_site_id
 _symmetry_equiv_pos_as_xyz
  1  'x, y, z'
loop_
 _atom_site_type_symbol
 _atom_site_label
 _atom_site_symmetry_multiplicity
 _atom_site_fract_x
 _atom_site_fract_y
 _atom_site_fract_z
 _atom_site_occupancy
  Li  Li0  1  0.000000  0.000000  0.500000  1
  Li  Li1  1  0.000000  0.500000  0.000000  1
  V  V2  1  0.000000  0.000000  0.000000  1
  V  V3  1  0.500000  1.000000  0.500000  1
  Si  Si4  1  0.614136  0.364136  0.250000  1
  Si  Si5  1  0.385864  0.635864  0.750000  1
  O  O6  1  0.728194  0.746981  0.981213  1
  O  O7  1  0.734233  0.253019  0.481213  1
  O  O8  1  0.741862  0.247609  0.005748  1
  O  O9  1  0.741862  0.736114  0.494252  1
  O  O10  1  0.265767  0.746981  0.518787  1
  O  O11  1  0.271806  0.253019  0.018787  1
  O  O12  1  0.258138  0.752391  0.994252  1
  O  O13  1  0.258138  0.263886  0.505748  1
