# generated using pymatgen
data_NaMnPCO7
_symmetry_space_group_name_H-M   'P 1'
_cell_length_a   5.15849181
_cell_length_b   6.19378557
_cell_length_c   9.43545165
_cell_angle_alpha   91.73293141
_cell_angle_beta   91.59622279
_cell_angle_gamma   91.59231720
_symmetry_Int_Tables_number   1
_chemical_formula_structural   NaMnPCO7
_chemical_formula_sum   'Na2 Mn2 P2 C2 O14'
_cell_volume   301.08977608
_cell_formula_units_Z   2
loop_
 _symmetry_equiv_pos_site_id
 _symmetry_equiv_pos_as_xyz
  1  'x, y, z'
loop_
 _atom_site_type_symbol
 _atom_site_label
 _atom_site_symmetry_multiplicity
 _atom_site_fract_x
 _atom_site_fract_y
 _atom_site_fract_z
 _atom_site_occupancy
  Na  Na0  1  0.252842  0.051838  0.769975  1
  Na  Na1  1  0.747158  0.948162  0.230025  1
  Mn  Mn2  1  0.784291  0.752280  0.649586  1
  Mn  Mn3  1  0.215709  0.247720  0.350414  1
  P  P4  1  0.721338  0.243499  0.562111  1
  P  P5  1  0.278662  0.756501  0.437889  1
  C  C6  1  0.708097  0.750544  0.900522  1
  C  C7  1  0.291903  0.249456  0.099478  1
  O  O8  1  0.335386  0.241725  0.972137  1
  O  O9  1  0.939500  0.766677  0.844110  1
  O  O10  1  0.525972  0.727582  0.797645  1
  O  O11  1  0.833120  0.448351  0.640561  1
  O  O12  1  0.753386  0.065282  0.674907  1
  O  O13  1  0.128806  0.811015  0.572548  1
  O  O14  1  0.427285  0.255916  0.524953  1
  O  O15  1  0.572715  0.744084  0.475047  1
  O  O16  1  0.871194  0.188985  0.427452  1
  O  O17  1  0.246614  0.934718  0.325093  1
  O  O18  1  0.166880  0.551649  0.359439  1
  O  O19  1  0.474028  0.272418  0.202355  1
  O  O20  1  0.060500  0.233323  0.155890  1
  O  O21  1  0.664614  0.758275  0.027863  1
