# generated using pymatgen
data_Na2VPO6
_symmetry_space_group_name_H-M   'P 1'
_cell_length_a   4.93044942
_cell_length_b   9.02752074
_cell_length_c   11.46692321
_cell_angle_alpha   90.00000000
_cell_angle_beta   90.00000000
_cell_angle_gamma   90.00000000
_symmetry_Int_Tables_number   1
_chemical_formula_structural   Na2VPO6
_chemical_formula_sum   'Na8 V4 P4 O24'
_cell_volume   510.38970642
_cell_formula_units_Z   4
loop_
 _symmetry_equiv_pos_site_id
 _symmetry_equiv_pos_as_xyz
  1  'x, y, z'
loop_
 _atom_site_type_symbol
 _atom_site_label
 _atom_site_symmetry_multiplicity
 _atom_site_fract_x
 _atom_site_fract_y
 _atom_site_fract_z
 _atom_site_occupancy
  Na  Na0  1  0.014060  0.323065  0.081441  1
  Na  Na1  1  0.539468  0.621962  0.127489  1
  Na  Na2  1  0.039468  0.121962  0.372511  1
  Na  Na3  1  0.514060  0.823065  0.418559  1
  Na  Na4  1  0.485940  0.323065  0.581441  1
  Na  Na5  1  0.960532  0.621962  0.627489  1
  Na  Na6  1  0.460532  0.121962  0.872511  1
  Na  Na7  1  0.985940  0.823065  0.918559  1
  V  V8  1  0.473122  0.000996  0.124638  1
  V  V9  1  0.973122  0.500996  0.375362  1
  V  V10  1  0.026878  0.000996  0.624638  1
  V  V11  1  0.526878  0.500996  0.875362  1
  P  P12  1  0.086413  0.806883  0.220871  1
  P  P13  1  0.586413  0.306883  0.279129  1
  P  P14  1  0.413587  0.806883  0.720871  1
  P  P15  1  0.913587  0.306883  0.779129  1
  O  O16  1  0.318042  0.470750  0.987089  1
  O  O17  1  0.250597  0.114870  0.064129  1
  O  O18  1  0.233830  0.813356  0.098288  1
  O  O19  1  0.746760  0.434085  0.217429  1
  O  O20  1  0.780010  0.827227  0.219178  1
  O  O21  1  0.661841  0.152646  0.222914  1
  O  O22  1  0.161841  0.652646  0.277086  1
  O  O23  1  0.280010  0.327227  0.280822  1
  O  O24  1  0.246760  0.934085  0.282571  1
  O  O25  1  0.733830  0.313356  0.401712  1
  O  O26  1  0.750597  0.614870  0.435871  1
  O  O27  1  0.818042  0.970750  0.512911  1
  O  O28  1  0.181958  0.470750  0.487089  1
  O  O29  1  0.249403  0.114870  0.564129  1
  O  O30  1  0.266170  0.813356  0.598288  1
  O  O31  1  0.753240  0.434085  0.717429  1
  O  O32  1  0.719990  0.827227  0.719178  1
  O  O33  1  0.838159  0.152646  0.722914  1
  O  O34  1  0.338159  0.652646  0.777086  1
  O  O35  1  0.219990  0.327227  0.780822  1
  O  O36  1  0.253240  0.934085  0.782571  1
  O  O37  1  0.766170  0.313356  0.901712  1
  O  O38  1  0.749403  0.614870  0.935871  1
  O  O39  1  0.681958  0.970750  0.012911  1
