# generated using pymatgen
data_Li4Co7O3F13
_symmetry_space_group_name_H-M   'P 1'
_cell_length_a   6.06517203
_cell_length_b   6.09317773
_cell_length_c   10.53983591
_cell_angle_alpha   105.48486193
_cell_angle_beta   91.48752901
_cell_angle_gamma   118.98928422
_symmetry_Int_Tables_number   1
_chemical_formula_structural   Li4Co7O3F13
_chemical_formula_sum   'Li4 Co7 O3 F13'
_cell_volume   322.71863188
_cell_formula_units_Z   1
loop_
 _symmetry_equiv_pos_site_id
 _symmetry_equiv_pos_as_xyz
  1  'x, y, z'
loop_
 _atom_site_type_symbol
 _atom_site_label
 _atom_site_symmetry_multiplicity
 _atom_site_fract_x
 _atom_site_fract_y
 _atom_site_fract_z
 _atom_site_occupancy
  Li  Li0  1  0.901501  0.183403  0.938832  1
  Li  Li1  1  0.130462  0.350791  0.559000  1
  Li  Li2  1  0.873262  0.665142  0.440504  1
  Li  Li3  1  0.116261  0.821111  0.057583  1
  Co  Co4  1  0.478090  0.740867  0.750156  1
  Co  Co5  1  0.463273  0.227895  0.771154  1
  Co  Co6  1  0.480676  0.992384  0.500434  1
  Co  Co7  1  0.496559  0.487776  0.001294  1
  Co  Co8  1  0.023387  0.750299  0.747012  1
  Co  Co9  1  0.994952  0.241799  0.251482  1
  Co  Co10  1  0.492430  0.747769  0.249140  1
  O  O11  1  0.305700  0.396532  0.867028  1
  O  O12  1  0.273921  0.895662  0.858343  1
  O  O13  1  0.268600  0.665568  0.626217  1
  F  F14  1  0.757703  0.855014  0.864304  1
  F  F15  1  0.749201  0.376019  0.873078  1
  F  F16  1  0.742476  0.872787  0.370971  1
  F  F17  1  0.726213  0.137110  0.633937  1
  F  F18  1  0.240441  0.391694  0.363524  1
  F  F19  1  0.754191  0.336555  0.383987  1
  F  F20  1  0.745753  0.612427  0.639941  1
  F  F21  1  0.259318  0.856169  0.375367  1
  F  F22  1  0.265555  0.146112  0.627686  1
  F  F23  1  0.243158  0.610437  0.127204  1
  F  F24  1  0.234728  0.142246  0.122571  1
  F  F25  1  0.755861  0.103773  0.133733  1
  F  F26  1  0.726324  0.642658  0.115520  1
