# generated using pymatgen
data_Ti2N2O
_symmetry_space_group_name_H-M   'P 1'
_cell_length_a   8.21402477
_cell_length_b   8.22768951
_cell_length_c   8.23181711
_cell_angle_alpha   109.55984439
_cell_angle_beta   109.42252523
_cell_angle_gamma   109.34800448
_symmetry_Int_Tables_number   1
_chemical_formula_structural   Ti2N2O
_chemical_formula_sum   'Ti16 N16 O8'
_cell_volume   428.69871366
_cell_formula_units_Z   8
loop_
 _symmetry_equiv_pos_site_id
 _symmetry_equiv_pos_as_xyz
  1  'x, y, z'
loop_
 _atom_site_type_symbol
 _atom_site_label
 _atom_site_symmetry_multiplicity
 _atom_site_fract_x
 _atom_site_fract_y
 _atom_site_fract_z
 _atom_site_occupancy
  Ti  Ti0  1  0.987891  0.991168  0.518581  1
  Ti  Ti1  1  0.763350  0.968933  0.287006  1
  Ti  Ti2  1  0.955867  0.706061  0.250836  1
  Ti  Ti3  1  0.546983  0.787120  0.756553  1
  Ti  Ti4  1  0.214293  0.267609  0.032949  1
  Ti  Ti5  1  0.701977  0.252528  0.535475  1
  Ti  Ti6  1  0.514798  0.504052  0.486415  1
  Ti  Ti7  1  0.488872  0.993412  0.008890  1
  Ti  Ti8  1  0.262705  0.554886  0.204323  1
  Ti  Ti9  1  0.998226  0.502501  0.988733  1
  Ti  Ti10  1  0.743393  0.455681  0.798921  1
  Ti  Ti11  1  0.281646  0.736735  0.464691  1
  Ti  Ti12  1  0.795034  0.745930  0.963720  1
  Ti  Ti13  1  0.045225  0.293493  0.746627  1
  Ti  Ti14  1  0.454025  0.206047  0.248124  1
  Ti  Ti15  1  0.239606  0.031919  0.703496  1
  N  N16  1  0.949853  0.222173  0.042921  1
  N  N17  1  0.773235  0.049503  0.490031  1
  N  N18  1  0.539603  0.768331  0.009439  1
  N  N19  1  0.279464  0.538999  0.949190  1
  N  N20  1  0.734642  0.507334  0.539438  1
  N  N21  1  0.264525  0.488289  0.458931  1
  N  N22  1  0.764452  0.723210  0.725032  1
  N  N23  1  0.225827  0.777158  0.232158  1
  N  N24  1  0.723693  0.455641  0.054287  1
  N  N25  1  0.993994  0.044968  0.730243  1
  N  N26  1  0.457134  0.231240  0.993442  1
  N  N27  1  0.040650  0.549957  0.724635  1
  N  N28  1  0.725626  0.736112  0.226137  1
  N  N29  1  0.226140  0.951861  0.508448  1
  N  N30  1  0.511072  0.274430  0.451354  1
  N  N31  1  0.054730  0.775501  0.956880  1
  O  O32  1  0.488437  0.727892  0.547617  1
  O  O33  1  0.275092  0.271346  0.775323  1
  O  O34  1  0.958074  0.451060  0.275894  1
  O  O35  1  0.007707  0.956219  0.268886  1
  O  O36  1  0.774696  0.224095  0.769846  1
  O  O37  1  0.233411  0.272463  0.272744  1
  O  O38  1  0.454972  0.997999  0.776626  1
  O  O39  1  0.549080  0.006141  0.225158  1
