# generated using pymatgen
data_Li3Fe2P2(CO7)2
_symmetry_space_group_name_H-M   'P 1'
_cell_length_a   8.38309857
_cell_length_b   6.47359356
_cell_length_c   10.27637472
_cell_angle_alpha   90.00000000
_cell_angle_beta   94.94395178
_cell_angle_gamma   90.00000000
_symmetry_Int_Tables_number   1
_chemical_formula_structural   Li3Fe2P2(CO7)2
_chemical_formula_sum   'Li6 Fe4 P4 C4 O28'
_cell_volume   555.61136308
_cell_formula_units_Z   2
loop_
 _symmetry_equiv_pos_site_id
 _symmetry_equiv_pos_as_xyz
  1  'x, y, z'
loop_
 _atom_site_type_symbol
 _atom_site_label
 _atom_site_symmetry_multiplicity
 _atom_site_fract_x
 _atom_site_fract_y
 _atom_site_fract_z
 _atom_site_occupancy
  Li  Li0  1  0.889343  0.003859  0.387375  1
  Li  Li1  1  0.889343  0.996141  0.887375  1
  Li  Li2  1  0.285292  0.705447  0.374175  1
  Li  Li3  1  0.285292  0.294553  0.874175  1
  Li  Li4  1  0.098112  0.501872  0.119707  1
  Li  Li5  1  0.098112  0.498128  0.619707  1
  Fe  Fe6  1  0.670539  0.496258  0.401060  1
  Fe  Fe7  1  0.670539  0.503742  0.901060  1
  Fe  Fe8  1  0.333357  0.997261  0.099308  1
  Fe  Fe9  1  0.333357  0.002739  0.599308  1
  P  P10  1  0.577484  0.993142  0.361730  1
  P  P11  1  0.577484  0.006858  0.861730  1
  P  P12  1  0.420688  0.502026  0.135594  1
  P  P13  1  0.420688  0.497974  0.635594  1
  C  C14  1  0.961775  0.508138  0.353701  1
  C  C15  1  0.961775  0.491862  0.853701  1
  C  C16  1  0.043265  0.999916  0.149514  1
  C  C17  1  0.043265  0.000084  0.649514  1
  O  O18  1  0.928786  0.500505  0.475185  1
  O  O19  1  0.907081  0.002242  0.191256  1
  O  O20  1  0.928786  0.499495  0.975185  1
  O  O21  1  0.838971  0.490541  0.268328  1
  O  O22  1  0.907081  0.997758  0.691256  1
  O  O23  1  0.838971  0.509459  0.768328  1
  O  O24  1  0.680452  0.184585  0.401123  1
  O  O25  1  0.692510  0.809583  0.393859  1
  O  O26  1  0.692510  0.190417  0.893859  1
  O  O27  1  0.680452  0.815415  0.901123  1
  O  O28  1  0.573685  0.497484  0.064990  1
  O  O29  1  0.523474  0.999196  0.213752  1
  O  O30  1  0.573685  0.502516  0.564990  1
  O  O31  1  0.523474  0.000804  0.713752  1
  O  O32  1  0.463871  0.509696  0.286225  1
  O  O33  1  0.420968  0.971866  0.431685  1
  O  O34  1  0.463871  0.490304  0.786225  1
  O  O35  1  0.420968  0.028134  0.931685  1
  O  O36  1  0.308596  0.688986  0.097777  1
  O  O37  1  0.306868  0.316648  0.093836  1
  O  O38  1  0.306868  0.683352  0.593836  1
  O  O39  1  0.308596  0.311014  0.597777  1
  O  O40  1  0.170603  0.989742  0.233903  1
  O  O41  1  0.101707  0.532569  0.316144  1
  O  O42  1  0.170603  0.010258  0.733903  1
  O  O43  1  0.073685  0.007603  0.027157  1
  O  O44  1  0.101707  0.467431  0.816144  1
  O  O45  1  0.073685  0.992397  0.527157  1
