# generated using pymatgen
data_SbOF
_symmetry_space_group_name_H-M   'P 1'
_cell_length_a   5.49156915
_cell_length_b   12.56839993
_cell_length_c   13.49907818
_cell_angle_alpha   90.00000000
_cell_angle_beta   90.00000000
_cell_angle_gamma   90.00000000
_symmetry_Int_Tables_number   1
_chemical_formula_structural   SbOF
_chemical_formula_sum   'Sb16 O16 F16'
_cell_volume   931.70957959
_cell_formula_units_Z   16
loop_
 _symmetry_equiv_pos_site_id
 _symmetry_equiv_pos_as_xyz
  1  'x, y, z'
loop_
 _atom_site_type_symbol
 _atom_site_label
 _atom_site_symmetry_multiplicity
 _atom_site_fract_x
 _atom_site_fract_y
 _atom_site_fract_z
 _atom_site_occupancy
  Sb  Sb0  1  0.758654  0.835128  0.983241  1
  Sb  Sb1  1  0.741346  0.835128  0.483241  1
  Sb  Sb2  1  0.289830  0.904044  0.730837  1
  Sb  Sb3  1  0.210170  0.904044  0.230837  1
  Sb  Sb4  1  0.710170  0.595956  0.230837  1
  Sb  Sb5  1  0.789830  0.595956  0.730837  1
  Sb  Sb6  1  0.241346  0.664872  0.483241  1
  Sb  Sb7  1  0.258654  0.664872  0.983241  1
  Sb  Sb8  1  0.758654  0.335128  0.516759  1
  Sb  Sb9  1  0.741346  0.335128  0.016759  1
  Sb  Sb10  1  0.210170  0.404044  0.269163  1
  Sb  Sb11  1  0.289830  0.404044  0.769163  1
  Sb  Sb12  1  0.789830  0.095956  0.769163  1
  Sb  Sb13  1  0.710170  0.095956  0.269163  1
  Sb  Sb14  1  0.241346  0.164872  0.016759  1
  Sb  Sb15  1  0.258654  0.164872  0.516759  1
  O  O16  1  0.517655  0.980454  0.203521  1
  O  O17  1  0.982345  0.980454  0.703521  1
  O  O18  1  0.437809  0.783956  0.421046  1
  O  O19  1  0.062191  0.783956  0.921046  1
  O  O20  1  0.562191  0.716044  0.921046  1
  O  O21  1  0.937809  0.716044  0.421046  1
  O  O22  1  0.017655  0.519546  0.203521  1
  O  O23  1  0.482345  0.519546  0.703521  1
  O  O24  1  0.517655  0.480454  0.296479  1
  O  O25  1  0.982345  0.480454  0.796479  1
  O  O26  1  0.062191  0.283956  0.578954  1
  O  O27  1  0.437809  0.283956  0.078954  1
  O  O28  1  0.562191  0.216044  0.578954  1
  O  O29  1  0.937809  0.216044  0.078954  1
  O  O30  1  0.017655  0.019546  0.296479  1
  O  O31  1  0.482345  0.019546  0.796479  1
  F  F32  1  0.075215  0.953461  0.100426  1
  F  F33  1  0.424785  0.953461  0.600426  1
  F  F34  1  0.842872  0.748504  0.103967  1
  F  F35  1  0.657128  0.748504  0.603967  1
  F  F36  1  0.342872  0.751496  0.103967  1
  F  F37  1  0.157128  0.751496  0.603967  1
  F  F38  1  0.924785  0.546539  0.600426  1
  F  F39  1  0.575215  0.546539  0.100426  1
  F  F40  1  0.424785  0.453461  0.899574  1
  F  F41  1  0.075215  0.453461  0.399574  1
  F  F42  1  0.657128  0.248504  0.896033  1
  F  F43  1  0.842872  0.248504  0.396033  1
  F  F44  1  0.157128  0.251496  0.896033  1
  F  F45  1  0.342872  0.251496  0.396033  1
  F  F46  1  0.924785  0.046539  0.899574  1
  F  F47  1  0.575215  0.046539  0.399574  1
