# generated using pymatgen
data_K4N2O5
_symmetry_space_group_name_H-M   'P 1'
_cell_length_a   8.83709366
_cell_length_b   8.83709366
_cell_length_c   7.39843215
_cell_angle_alpha   90.00000000
_cell_angle_beta   90.00000000
_cell_angle_gamma   130.45694012
_symmetry_Int_Tables_number   1
_chemical_formula_structural   K4N2O5
_chemical_formula_sum   'K8 N4 O10'
_cell_volume   439.62529812
_cell_formula_units_Z   2
loop_
 _symmetry_equiv_pos_site_id
 _symmetry_equiv_pos_as_xyz
  1  'x, y, z'
loop_
 _atom_site_type_symbol
 _atom_site_label
 _atom_site_symmetry_multiplicity
 _atom_site_fract_x
 _atom_site_fract_y
 _atom_site_fract_z
 _atom_site_occupancy
  K  K0  1  0.337617  0.662383  0.000000  1
  K  K1  1  0.750000  0.750000  0.250000  1
  K  K2  1  0.250000  0.250000  0.250000  1
  K  K3  1  0.162383  0.837617  0.500000  1
  K  K4  1  0.662383  0.337617  0.000000  1
  K  K5  1  0.750000  0.750000  0.750000  1
  K  K6  1  0.250000  0.250000  0.750000  1
  K  K7  1  0.837617  0.162383  0.500000  1
  N  N8  1  0.120490  0.879510  0.000000  1
  N  N9  1  0.879510  0.120490  0.000000  1
  N  N10  1  0.379510  0.620490  0.500000  1
  N  N11  1  0.620490  0.379510  0.500000  1
  O  O12  1  0.268202  0.942490  0.101026  1
  O  O13  1  0.500000  0.500000  0.000000  1
  O  O14  1  0.442490  0.768202  0.601026  1
  O  O15  1  0.231798  0.557510  0.398974  1
  O  O16  1  0.731798  0.057510  0.101026  1
  O  O17  1  0.768202  0.442490  0.398974  1
  O  O18  1  0.000000  0.000000  0.500000  1
  O  O19  1  0.057510  0.731798  0.898974  1
  O  O20  1  0.557510  0.231798  0.601026  1
  O  O21  1  0.942490  0.268202  0.898974  1
