# generated using pymatgen
data_Na6Fe2B4AsO16
_symmetry_space_group_name_H-M   'P 1'
_cell_length_a   10.06416051
_cell_length_b   10.06416051
_cell_length_c   10.06416051
_cell_angle_alpha   60.00000000
_cell_angle_beta   60.00000000
_cell_angle_gamma   60.00000000
_symmetry_Int_Tables_number   1
_chemical_formula_structural   Na6Fe2B4AsO16
_chemical_formula_sum   'Na12 Fe4 B8 As2 O32'
_cell_volume   720.80479416
_cell_formula_units_Z   2
loop_
 _symmetry_equiv_pos_site_id
 _symmetry_equiv_pos_as_xyz
  1  'x, y, z'
loop_
 _atom_site_type_symbol
 _atom_site_label
 _atom_site_symmetry_multiplicity
 _atom_site_fract_x
 _atom_site_fract_y
 _atom_site_fract_z
 _atom_site_occupancy
  Na  Na0  1  0.784905  0.215095  0.215095  1
  Na  Na1  1  0.465095  0.034905  0.465095  1
  Na  Na2  1  0.215095  0.215095  0.784905  1
  Na  Na3  1  0.784905  0.784905  0.215095  1
  Na  Na4  1  0.034905  0.465095  0.465095  1
  Na  Na5  1  0.034905  0.465095  0.034905  1
  Na  Na6  1  0.215095  0.784905  0.215095  1
  Na  Na7  1  0.215095  0.784905  0.784905  1
  Na  Na8  1  0.034905  0.034905  0.465095  1
  Na  Na9  1  0.465095  0.465095  0.034905  1
  Na  Na10  1  0.784905  0.215095  0.784905  1
  Na  Na11  1  0.465095  0.034905  0.034905  1
  Fe  Fe12  1  0.125000  0.625000  0.625000  1
  Fe  Fe13  1  0.625000  0.625000  0.125000  1
  Fe  Fe14  1  0.625000  0.125000  0.625000  1
  Fe  Fe15  1  0.625000  0.625000  0.625000  1
  B  B16  1  0.760402  0.413199  0.413199  1
  B  B17  1  0.413199  0.413199  0.413199  1
  B  B18  1  0.413199  0.413199  0.760402  1
  B  B19  1  0.413199  0.760402  0.413199  1
  B  B20  1  0.836801  0.489598  0.836801  1
  B  B21  1  0.836801  0.836801  0.836801  1
  B  B22  1  0.836801  0.836801  0.489598  1
  B  B23  1  0.489598  0.836801  0.836801  1
  As  As24  1  0.000000  1.000000  1.000000  1
  As  As25  1  0.250000  0.250000  0.250000  1
  O  O26  1  0.718410  0.808308  0.485546  1
  O  O27  1  0.485546  0.987737  0.718410  1
  O  O28  1  0.764454  0.441692  0.262263  1
  O  O29  1  0.531590  0.262263  0.441692  1
  O  O30  1  0.764454  0.531590  0.441692  1
  O  O31  1  0.070126  0.789622  0.070126  1
  O  O32  1  0.441692  0.262263  0.764454  1
  O  O33  1  0.070126  0.070126  0.070126  1
  O  O34  1  0.070126  0.070126  0.789622  1
  O  O35  1  0.441692  0.531590  0.262263  1
  O  O36  1  0.262263  0.441692  0.531590  1
  O  O37  1  0.789622  0.070126  0.070126  1
  O  O38  1  0.531590  0.764454  0.262263  1
  O  O39  1  0.262263  0.531590  0.764454  1
  O  O40  1  0.441692  0.764454  0.531590  1
  O  O41  1  0.987737  0.485546  0.808308  1
  O  O42  1  0.262263  0.764454  0.441692  1
  O  O43  1  0.808308  0.485546  0.718410  1
  O  O44  1  0.987737  0.718410  0.485546  1
  O  O45  1  0.718410  0.485546  0.987737  1
  O  O46  1  0.460378  0.179874  0.179874  1
  O  O47  1  0.987737  0.808308  0.718410  1
  O  O48  1  0.808308  0.718410  0.987737  1
  O  O49  1  0.179874  0.179874  0.179874  1
  O  O50  1  0.179874  0.179874  0.460378  1
  O  O51  1  0.808308  0.987737  0.485546  1
  O  O52  1  0.179874  0.460378  0.179874  1
  O  O53  1  0.485546  0.718410  0.808308  1
  O  O54  1  0.718410  0.987737  0.808308  1
  O  O55  1  0.485546  0.808308  0.987737  1
  O  O56  1  0.764454  0.262263  0.531590  1
  O  O57  1  0.531590  0.441692  0.764454  1
