# generated using pymatgen
data_LiV(CO3)2
_symmetry_space_group_name_H-M   'P 1'
_cell_length_a   5.18098748
_cell_length_b   7.85133971
_cell_length_c   6.28833080
_cell_angle_alpha   90.00000000
_cell_angle_beta   111.27710777
_cell_angle_gamma   90.00000000
_symmetry_Int_Tables_number   1
_chemical_formula_structural   LiV(CO3)2
_chemical_formula_sum   'Li2 V2 C4 O12'
_cell_volume   238.35886629
_cell_formula_units_Z   2
loop_
 _symmetry_equiv_pos_site_id
 _symmetry_equiv_pos_as_xyz
  1  'x, y, z'
loop_
 _atom_site_type_symbol
 _atom_site_label
 _atom_site_symmetry_multiplicity
 _atom_site_fract_x
 _atom_site_fract_y
 _atom_site_fract_z
 _atom_site_occupancy
  Li  Li0  1  0.545352  0.941676  0.920591  1
  Li  Li1  1  0.454648  0.441676  0.079409  1
  V  V2  1  0.249531  0.001329  0.270317  1
  V  V3  1  0.750469  0.501329  0.729683  1
  C  C4  1  0.498865  0.734153  0.370540  1
  C  C5  1  0.501135  0.234153  0.629460  1
  C  C6  1  0.023528  0.762844  0.887926  1
  C  C7  1  0.976472  0.262844  0.112074  1
  O  O8  1  0.254042  0.751191  0.374844  1
  O  O9  1  0.610011  0.868222  0.315966  1
  O  O10  1  0.627438  0.587081  0.411777  1
  O  O11  1  0.372562  0.087081  0.588223  1
  O  O12  1  0.389989  0.368222  0.684034  1
  O  O13  1  0.745958  0.251191  0.625156  1
  O  O14  1  0.759905  0.758011  0.848196  1
  O  O15  1  0.133505  0.618436  0.860171  1
  O  O16  1  0.166300  0.901178  0.945006  1
  O  O17  1  0.833700  0.401178  0.054994  1
  O  O18  1  0.866495  0.118436  0.139829  1
  O  O19  1  0.240095  0.258011  0.151804  1
