# generated using pymatgen
data_V3Co3(TeO8)2
_symmetry_space_group_name_H-M   'P 1'
_cell_length_a   5.86946314
_cell_length_b   5.90162676
_cell_length_c   10.10526370
_cell_angle_alpha   91.35404631
_cell_angle_beta   90.21804212
_cell_angle_gamma   118.91350155
_symmetry_Int_Tables_number   1
_chemical_formula_structural   V3Co3(TeO8)2
_chemical_formula_sum   'V3 Co3 Te2 O16'
_cell_volume   306.27584036
_cell_formula_units_Z   1
loop_
 _symmetry_equiv_pos_site_id
 _symmetry_equiv_pos_as_xyz
  1  'x, y, z'
loop_
 _atom_site_type_symbol
 _atom_site_label
 _atom_site_symmetry_multiplicity
 _atom_site_fract_x
 _atom_site_fract_y
 _atom_site_fract_z
 _atom_site_occupancy
  V  V0  1  0.333831  0.180312  0.237009  1
  V  V1  1  0.208143  0.339442  0.698617  1
  V  V2  1  0.164146  0.799338  0.719342  1
  Co  Co3  1  0.823435  0.177721  0.226321  1
  Co  Co4  1  0.832458  0.659378  0.222177  1
  Co  Co5  1  0.659229  0.836450  0.685421  1
  Te  Te6  1  0.682582  0.341223  0.487802  1
  Te  Te7  1  0.348579  0.677629  0.024557  1
  O  O8  1  0.835153  0.174852  0.585186  1
  O  O9  1  0.953884  0.474170  0.354135  1
  O  O10  1  0.632025  0.301054  0.128815  1
  O  O11  1  0.013502  0.023635  0.305065  1
  O  O12  1  0.007849  0.010724  0.770565  1
  O  O13  1  0.835961  0.662877  0.586243  1
  O  O14  1  0.507557  0.045048  0.352255  1
  O  O15  1  0.497553  0.460649  0.356779  1
  O  O16  1  0.680347  0.838301  0.109322  1
  O  O17  1  0.346340  0.181279  0.583653  1
  O  O18  1  0.464512  0.484478  0.804704  1
  O  O19  1  0.450629  0.963051  0.809652  1
  O  O20  1  0.307309  0.649397  0.601864  1
  O  O21  1  0.197597  0.361447  0.129222  1
  O  O22  1  0.024019  0.514398  0.806069  1
  O  O23  1  0.193362  0.842950  0.130944  1
