# generated using pymatgen
data_La2Ti3O9
_symmetry_space_group_name_H-M   'P 1'
_cell_length_a   7.01012946
_cell_length_b   7.01012946
_cell_length_c   10.69716883
_cell_angle_alpha   90.00000000
_cell_angle_beta   90.00000000
_cell_angle_gamma   120.00000000
_symmetry_Int_Tables_number   1
_chemical_formula_structural   La2Ti3O9
_chemical_formula_sum   'La4 Ti6 O18'
_cell_volume   455.25168163
_cell_formula_units_Z   2
loop_
 _symmetry_equiv_pos_site_id
 _symmetry_equiv_pos_as_xyz
  1  'x, y, z'
loop_
 _atom_site_type_symbol
 _atom_site_label
 _atom_site_symmetry_multiplicity
 _atom_site_fract_x
 _atom_site_fract_y
 _atom_site_fract_z
 _atom_site_occupancy
  La  La0  1  0.333333  0.666667  0.959342  1
  La  La1  1  0.333333  0.666667  0.540658  1
  La  La2  1  0.666667  0.333333  0.459342  1
  La  La3  1  0.666667  0.333333  0.040658  1
  Ti  Ti4  1  0.230628  0.925251  0.250000  1
  Ti  Ti5  1  0.074749  0.305377  0.250000  1
  Ti  Ti6  1  0.305377  0.230628  0.750000  1
  Ti  Ti7  1  0.694623  0.769372  0.250000  1
  Ti  Ti8  1  0.925251  0.694623  0.750000  1
  Ti  Ti9  1  0.769372  0.074749  0.750000  1
  O  O10  1  0.209305  0.927037  0.750000  1
  O  O11  1  0.375924  0.936356  0.108297  1
  O  O12  1  0.375924  0.936356  0.391703  1
  O  O13  1  0.063644  0.439569  0.391703  1
  O  O14  1  0.063644  0.439569  0.108297  1
  O  O15  1  0.072963  0.282268  0.750000  1
  O  O16  1  0.282268  0.209305  0.250000  1
  O  O17  1  0.560431  0.624076  0.108297  1
  O  O18  1  0.560431  0.624076  0.391703  1
  O  O19  1  0.439569  0.375924  0.608297  1
  O  O20  1  0.439569  0.375924  0.891703  1
  O  O21  1  0.717732  0.790695  0.750000  1
  O  O22  1  0.927037  0.717732  0.250000  1
  O  O23  1  0.936356  0.560431  0.608297  1
  O  O24  1  0.936356  0.560431  0.891703  1
  O  O25  1  0.624076  0.063644  0.608297  1
  O  O26  1  0.624076  0.063644  0.891703  1
  O  O27  1  0.790695  0.072963  0.250000  1
