# generated using pymatgen
data_Al12PbO19
_symmetry_space_group_name_H-M   'P 1'
_cell_length_a   5.63028907
_cell_length_b   5.63028907
_cell_length_c   22.24682982
_cell_angle_alpha   90.00000000
_cell_angle_beta   90.00000000
_cell_angle_gamma   120.00000000
_symmetry_Int_Tables_number   1
_chemical_formula_structural   Al12PbO19
_chemical_formula_sum   'Al24 Pb2 O38'
_cell_volume   610.74532310
_cell_formula_units_Z   2
loop_
 _symmetry_equiv_pos_site_id
 _symmetry_equiv_pos_as_xyz
  1  'x, y, z'
loop_
 _atom_site_type_symbol
 _atom_site_label
 _atom_site_symmetry_multiplicity
 _atom_site_fract_x
 _atom_site_fract_y
 _atom_site_fract_z
 _atom_site_occupancy
  Al  Al0  1  0.169032  0.830968  0.892063  1
  Al  Al1  1  0.167576  0.832424  0.608743  1
  Al  Al2  1  0.333333  0.666667  0.028448  1
  Al  Al3  1  0.333333  0.666667  0.190293  1
  Al  Al4  1  0.333333  0.666667  0.309804  1
  Al  Al5  1  0.167576  0.335152  0.608743  1
  Al  Al6  1  0.000000  0.000000  0.000294  1
  Al  Al7  1  0.000000  0.000000  0.258778  1
  Al  Al8  1  0.000000  0.000000  0.500294  1
  Al  Al9  1  0.000000  0.000000  0.758778  1
  Al  Al10  1  0.333333  0.666667  0.471911  1
  Al  Al11  1  0.169032  0.338065  0.892063  1
  Al  Al12  1  0.664848  0.832424  0.608743  1
  Al  Al13  1  0.661935  0.830968  0.892063  1
  Al  Al14  1  0.335152  0.167576  0.108743  1
  Al  Al15  1  0.338065  0.169032  0.392063  1
  Al  Al16  1  0.666667  0.333333  0.809804  1
  Al  Al17  1  0.666667  0.333333  0.690293  1
  Al  Al18  1  0.830968  0.661935  0.392063  1
  Al  Al19  1  0.832424  0.664848  0.108743  1
  Al  Al20  1  0.666667  0.333333  0.528448  1
  Al  Al21  1  0.666667  0.333333  0.971911  1
  Al  Al22  1  0.832424  0.167576  0.108743  1
  Al  Al23  1  0.830968  0.169032  0.392063  1
  Pb  Pb24  1  0.333333  0.666667  0.748678  1
  Pb  Pb25  1  0.666667  0.333333  0.248678  1
  O  O26  1  0.155297  0.844703  0.051222  1
  O  O27  1  0.154475  0.845525  0.447979  1
  O  O28  1  0.003010  0.501505  0.852993  1
  O  O29  1  0.002647  0.501323  0.647434  1
  O  O30  1  0.181612  0.818388  0.250810  1
  O  O31  1  0.154475  0.308950  0.447979  1
  O  O32  1  0.333333  0.666667  0.554173  1
  O  O33  1  0.000000  0.000000  0.147030  1
  O  O34  1  0.000000  0.000000  0.350271  1
  O  O35  1  0.181612  0.363224  0.250810  1
  O  O36  1  0.000000  0.000000  0.647030  1
  O  O37  1  0.000000  0.000000  0.850271  1
  O  O38  1  0.333333  0.666667  0.945938  1
  O  O39  1  0.155297  0.310595  0.051222  1
  O  O40  1  0.498677  0.997353  0.647434  1
  O  O41  1  0.498495  0.996990  0.852993  1
  O  O42  1  0.636776  0.818388  0.250810  1
  O  O43  1  0.310595  0.155297  0.551222  1
  O  O44  1  0.308950  0.154475  0.947979  1
  O  O45  1  0.498677  0.501323  0.647434  1
  O  O46  1  0.498495  0.501505  0.852993  1
  O  O47  1  0.501505  0.498495  0.352993  1
  O  O48  1  0.501323  0.498677  0.147434  1
  O  O49  1  0.689405  0.844703  0.051222  1
  O  O50  1  0.691050  0.845525  0.447979  1
  O  O51  1  0.363224  0.181612  0.750810  1
  O  O52  1  0.501505  0.003010  0.352993  1
  O  O53  1  0.666667  0.333333  0.445938  1
  O  O54  1  0.818388  0.636776  0.750810  1
  O  O55  1  0.666667  0.333333  0.054173  1
  O  O56  1  0.845525  0.691050  0.947979  1
  O  O57  1  0.501323  0.002647  0.147434  1
  O  O58  1  0.844703  0.689405  0.551222  1
  O  O59  1  0.818388  0.181612  0.750810  1
  O  O60  1  0.997353  0.498677  0.147434  1
  O  O61  1  0.996990  0.498495  0.352993  1
  O  O62  1  0.845525  0.154475  0.947979  1
  O  O63  1  0.844703  0.155297  0.551222  1
