# generated using pymatgen
data_LiMn2(PO4)2
_symmetry_space_group_name_H-M   'P 1'
_cell_length_a   8.67383139
_cell_length_b   8.67383139
_cell_length_c   6.71605073
_cell_angle_alpha   71.15992625
_cell_angle_beta   108.84007375
_cell_angle_gamma   89.51285381
_symmetry_Int_Tables_number   1
_chemical_formula_structural   LiMn2(PO4)2
_chemical_formula_sum   'Li3 Mn6 P6 O24'
_cell_volume   448.99002419
_cell_formula_units_Z   3
loop_
 _symmetry_equiv_pos_site_id
 _symmetry_equiv_pos_as_xyz
  1  'x, y, z'
loop_
 _atom_site_type_symbol
 _atom_site_label
 _atom_site_symmetry_multiplicity
 _atom_site_fract_x
 _atom_site_fract_y
 _atom_site_fract_z
 _atom_site_occupancy
  Li  Li0  1  0.500672  0.499045  0.750650  1
  Li  Li1  1  0.988351  0.988351  0.000000  1
  Li  Li2  1  0.499045  0.500672  0.249350  1
  Mn  Mn3  1  0.378996  0.934889  0.888195  1
  Mn  Mn4  1  0.735582  0.735582  0.500000  1
  Mn  Mn5  1  0.065500  0.614899  0.396549  1
  Mn  Mn6  1  0.934889  0.378996  0.111805  1
  Mn  Mn7  1  0.270040  0.270040  0.000000  1
  Mn  Mn8  1  0.614899  0.065500  0.603451  1
  P  P9  1  0.128721  0.652929  0.880920  1
  P  P10  1  0.290471  0.290471  0.500000  1
  P  P11  1  0.343492  0.871012  0.375169  1
  P  P12  1  0.652929  0.128721  0.119080  1
  P  P13  1  0.710020  0.710020  0.000000  1
  P  P14  1  0.871012  0.343492  0.624831  1
  O  O15  1  0.176874  0.824944  0.879741  1
  O  O16  1  0.171204  0.267405  0.285788  1
  O  O17  1  0.042569  0.592389  0.061328  1
  O  O18  1  0.465755  0.275161  0.484847  1
  O  O19  1  0.722026  0.471000  0.559672  1
  O  O20  1  0.999723  0.669514  0.650763  1
  O  O21  1  0.669514  0.999723  0.349237  1
  O  O22  1  0.471000  0.722026  0.440328  1
  O  O23  1  0.275161  0.465755  0.515153  1
  O  O24  1  0.592389  0.042569  0.938672  1
  O  O25  1  0.267405  0.171204  0.714212  1
  O  O26  1  0.168138  0.822969  0.350278  1
  O  O27  1  0.824944  0.176874  0.120259  1
  O  O28  1  0.736427  0.831297  0.788535  1
  O  O29  1  0.402532  0.955154  0.558870  1
  O  O30  1  0.726045  0.534231  0.986485  1
  O  O31  1  0.529741  0.279963  0.058046  1
  O  O32  1  0.324491  0.004234  0.145670  1
  O  O33  1  0.004234  0.324491  0.854330  1
  O  O34  1  0.279963  0.529741  0.941954  1
  O  O35  1  0.534231  0.726045  0.013515  1
  O  O36  1  0.955154  0.402532  0.441130  1
  O  O37  1  0.831297  0.736427  0.211465  1
  O  O38  1  0.822969  0.168138  0.649722  1
