# generated using pymatgen
data_K2Zn(H2N)4
_symmetry_space_group_name_H-M   'P 1'
_cell_length_a   6.93208967
_cell_length_b   7.50022895
_cell_length_c   8.13035564
_cell_angle_alpha   108.04058623
_cell_angle_beta   84.17991268
_cell_angle_gamma   115.82156337
_symmetry_Int_Tables_number   1
_chemical_formula_structural   K2Zn(H2N)4
_chemical_formula_sum   'K4 Zn2 H16 N8'
_cell_volume   361.52562595
_cell_formula_units_Z   2
loop_
 _symmetry_equiv_pos_site_id
 _symmetry_equiv_pos_as_xyz
  1  'x, y, z'
loop_
 _atom_site_type_symbol
 _atom_site_label
 _atom_site_symmetry_multiplicity
 _atom_site_fract_x
 _atom_site_fract_y
 _atom_site_fract_z
 _atom_site_occupancy
  K  K0  1  0.251738  0.502388  0.139383  1
  K  K1  1  0.748262  0.497612  0.860617  1
  K  K2  1  0.306395  0.574204  0.687559  1
  K  K3  1  0.693605  0.425796  0.312441  1
  Zn  Zn4  1  0.223356  0.106756  0.765026  1
  Zn  Zn5  1  0.776644  0.893244  0.234974  1
  H  H6  1  0.080465  0.798783  0.083806  1
  H  H7  1  0.919535  0.201217  0.916194  1
  H  H8  1  0.095784  0.833535  0.287234  1
  H  H9  1  0.904216  0.166465  0.712766  1
  H  H10  1  0.484137  0.102193  0.948749  1
  H  H11  1  0.515863  0.897807  0.051251  1
  H  H12  1  0.286432  0.112059  0.062973  1
  H  H13  1  0.713568  0.887941  0.937027  1
  H  H14  1  0.316581  0.164499  0.478244  1
  H  H15  1  0.683419  0.835501  0.521756  1
  H  H16  1  0.513355  0.140316  0.540666  1
  H  H17  1  0.486645  0.859684  0.459334  1
  H  H18  1  0.096423  0.207053  0.353381  1
  H  H19  1  0.903577  0.792947  0.646619  1
  H  H20  1  0.094281  0.744381  0.547637  1
  H  H21  1  0.905719  0.255619  0.452363  1
  N  N22  1  0.012486  0.245984  0.816184  1
  N  N23  1  0.987514  0.754016  0.183816  1
  N  N24  1  0.401212  0.192776  0.989191  1
  N  N25  1  0.598788  0.807224  0.010809  1
  N  N26  1  0.424864  0.225596  0.580987  1
  N  N27  1  0.575136  0.774404  0.419013  1
  N  N28  1  0.043338  0.786694  0.670974  1
  N  N29  1  0.956662  0.213306  0.329026  1
