# generated using pymatgen
data_FeOF
_symmetry_space_group_name_H-M   'P 1'
_cell_length_a   6.71518220
_cell_length_b   3.09897945
_cell_length_c   10.61099030
_cell_angle_alpha   90.00000000
_cell_angle_beta   108.33700138
_cell_angle_gamma   90.00000000
_symmetry_Int_Tables_number   1
_chemical_formula_structural   FeOF
_chemical_formula_sum   'Fe6 O6 F6'
_cell_volume   209.60442196
_cell_formula_units_Z   6
loop_
 _symmetry_equiv_pos_site_id
 _symmetry_equiv_pos_as_xyz
  1  'x, y, z'
loop_
 _atom_site_type_symbol
 _atom_site_label
 _atom_site_symmetry_multiplicity
 _atom_site_fract_x
 _atom_site_fract_y
 _atom_site_fract_z
 _atom_site_occupancy
  Fe  Fe0  1  0.027301  0.000000  0.011198  1
  Fe  Fe1  1  0.649480  0.000000  0.344261  1
  Fe  Fe2  1  0.317411  0.000000  0.678110  1
  Fe  Fe3  1  0.174249  0.500000  0.318064  1
  Fe  Fe4  1  0.841917  0.500000  0.651806  1
  Fe  Fe5  1  0.477969  0.500000  0.984929  1
  O  O6  1  0.471199  0.500000  0.332216  1
  O  O7  1  0.140098  0.500000  0.668730  1
  O  O8  1  0.093078  0.000000  0.204077  1
  O  O9  1  0.769224  0.000000  0.537378  1
  O  O10  1  0.444567  0.000000  0.870875  1
  O  O11  1  0.195509  0.500000  0.000437  1
  F  F12  1  0.804567  0.500000  0.000660  1
  F  F13  1  0.233446  0.000000  0.465356  1
  F  F14  1  0.891112  0.000000  0.798560  1
  F  F15  1  0.574267  0.000000  0.131852  1
  F  F16  1  0.864289  0.500000  0.335443  1
  F  F17  1  0.530322  0.500000  0.666050  1
