# generated using pymatgen
data_Ni4P2O9
_symmetry_space_group_name_H-M   'P 1'
_cell_length_a   6.36086137
_cell_length_b   7.65103415
_cell_length_c   8.05260050
_cell_angle_alpha   98.13741520
_cell_angle_beta   112.31435752
_cell_angle_gamma   101.74027459
_symmetry_Int_Tables_number   1
_chemical_formula_structural   Ni4P2O9
_chemical_formula_sum   'Ni8 P4 O18'
_cell_volume   344.45245468
_cell_formula_units_Z   2
loop_
 _symmetry_equiv_pos_site_id
 _symmetry_equiv_pos_as_xyz
  1  'x, y, z'
loop_
 _atom_site_type_symbol
 _atom_site_label
 _atom_site_symmetry_multiplicity
 _atom_site_fract_x
 _atom_site_fract_y
 _atom_site_fract_z
 _atom_site_occupancy
  Ni  Ni0  1  0.077675  0.881009  0.733037  1
  Ni  Ni1  1  0.602754  0.889372  0.737354  1
  Ni  Ni2  1  0.637937  0.670472  0.437235  1
  Ni  Ni3  1  0.830392  0.600783  0.906190  1
  Ni  Ni4  1  0.169608  0.399217  0.093810  1
  Ni  Ni5  1  0.362063  0.329528  0.562765  1
  Ni  Ni6  1  0.397246  0.110628  0.262646  1
  Ni  Ni7  1  0.922325  0.118991  0.266963  1
  P  P8  1  0.481860  0.779899  0.074657  1
  P  P9  1  0.118608  0.741123  0.353640  1
  P  P10  1  0.881392  0.258877  0.646360  1
  P  P11  1  0.518140  0.220101  0.925343  1
  O  O12  1  0.144237  0.935789  0.315388  1
  O  O13  1  0.611047  0.958355  0.237969  1
  O  O14  1  0.230627  0.787508  0.958135  1
  O  O15  1  0.365771  0.722857  0.478955  1
  O  O16  1  0.009424  0.589697  0.172639  1
  O  O17  1  0.631475  0.775610  0.962001  1
  O  O18  1  0.473370  0.614103  0.167327  1
  O  O19  1  0.969279  0.719408  0.467462  1
  O  O20  1  0.777182  0.716779  0.699242  1
  O  O21  1  0.222818  0.283221  0.300758  1
  O  O22  1  0.030721  0.280592  0.532538  1
  O  O23  1  0.526630  0.385897  0.832673  1
  O  O24  1  0.368525  0.224390  0.037999  1
  O  O25  1  0.990576  0.410303  0.827361  1
  O  O26  1  0.634229  0.277143  0.521045  1
  O  O27  1  0.769373  0.212492  0.041865  1
  O  O28  1  0.388953  0.041645  0.762031  1
  O  O29  1  0.855763  0.064211  0.684612  1
