# generated using pymatgen
data_Li3MnV(PO4)3
_symmetry_space_group_name_H-M   'P 1'
_cell_length_a   9.01854499
_cell_length_b   9.01854499
_cell_length_c   9.01854499
_cell_angle_alpha   56.11453368
_cell_angle_beta   56.11453368
_cell_angle_gamma   56.11453368
_symmetry_Int_Tables_number   1
_chemical_formula_structural   Li3MnV(PO4)3
_chemical_formula_sum   'Li6 Mn2 V2 P6 O24'
_cell_volume   472.00986306
_cell_formula_units_Z   2
loop_
 _symmetry_equiv_pos_site_id
 _symmetry_equiv_pos_as_xyz
  1  'x, y, z'
loop_
 _atom_site_type_symbol
 _atom_site_label
 _atom_site_symmetry_multiplicity
 _atom_site_fract_x
 _atom_site_fract_y
 _atom_site_fract_z
 _atom_site_occupancy
  Li  Li0  1  0.078979  0.733924  0.336316  1
  Li  Li1  1  0.336316  0.078979  0.733924  1
  Li  Li2  1  0.733924  0.336316  0.078979  1
  Li  Li3  1  0.263041  0.664460  0.922517  1
  Li  Li4  1  0.664460  0.922517  0.263041  1
  Li  Li5  1  0.922517  0.263041  0.664460  1
  Mn  Mn6  1  0.347600  0.347600  0.347600  1
  Mn  Mn7  1  0.854151  0.854151  0.854151  1
  V  V8  1  0.146506  0.146506  0.146506  1
  V  V9  1  0.651065  0.651065  0.651065  1
  P  P10  1  0.749510  0.040908  0.460043  1
  P  P11  1  0.040908  0.460043  0.749510  1
  P  P12  1  0.460043  0.749510  0.040908  1
  P  P13  1  0.540822  0.250822  0.958523  1
  P  P14  1  0.958523  0.540822  0.250822  1
  P  P15  1  0.250822  0.958523  0.540822  1
  O  O16  1  0.791181  0.843590  0.462413  1
  O  O17  1  0.536760  0.165692  0.492086  1
  O  O18  1  0.165692  0.492086  0.536760  1
  O  O19  1  0.843590  0.462413  0.791181  1
  O  O20  1  0.462413  0.791181  0.843590  1
  O  O21  1  0.801921  0.009267  0.610512  1
  O  O22  1  0.132838  0.254482  0.880744  1
  O  O23  1  0.009267  0.610512  0.801921  1
  O  O24  1  0.492086  0.536760  0.165692  1
  O  O25  1  0.254482  0.880744  0.132838  1
  O  O26  1  0.610512  0.801921  0.009267  1
  O  O27  1  0.880744  0.132838  0.254482  1
  O  O28  1  0.129524  0.859888  0.743793  1
  O  O29  1  0.384206  0.197887  0.997339  1
  O  O30  1  0.743793  0.129524  0.859888  1
  O  O31  1  0.504451  0.466446  0.833739  1
  O  O32  1  0.997339  0.384206  0.197887  1
  O  O33  1  0.859888  0.743793  0.129524  1
  O  O34  1  0.197887  0.997339  0.384206  1
  O  O35  1  0.542916  0.207208  0.151939  1
  O  O36  1  0.151939  0.542916  0.207208  1
  O  O37  1  0.833739  0.504451  0.466446  1
  O  O38  1  0.466446  0.833739  0.504451  1
  O  O39  1  0.207208  0.151939  0.542916  1
