# generated using pymatgen
data_Li3MnSiCO7
_symmetry_space_group_name_H-M   'P 1'
_cell_length_a   5.08553674
_cell_length_b   6.30340339
_cell_length_c   8.44584433
_cell_angle_alpha   90.00000000
_cell_angle_beta   92.40323739
_cell_angle_gamma   90.00000000
_symmetry_Int_Tables_number   1
_chemical_formula_structural   Li3MnSiCO7
_chemical_formula_sum   'Li6 Mn2 Si2 C2 O14'
_cell_volume   270.50345918
_cell_formula_units_Z   2
loop_
 _symmetry_equiv_pos_site_id
 _symmetry_equiv_pos_as_xyz
  1  'x, y, z'
loop_
 _atom_site_type_symbol
 _atom_site_label
 _atom_site_symmetry_multiplicity
 _atom_site_fract_x
 _atom_site_fract_y
 _atom_site_fract_z
 _atom_site_occupancy
  Li  Li0  1  0.250717  0.750000  0.104291  1
  Li  Li1  1  0.774687  0.966661  0.289268  1
  Li  Li2  1  0.774687  0.533339  0.289268  1
  Li  Li3  1  0.225313  0.466661  0.710732  1
  Li  Li4  1  0.225313  0.033339  0.710732  1
  Li  Li5  1  0.749283  0.250000  0.895709  1
  Mn  Mn6  1  0.211841  0.250000  0.324186  1
  Mn  Mn7  1  0.788159  0.750000  0.675814  1
  Si  Si8  1  0.295464  0.750000  0.426908  1
  Si  Si9  1  0.704536  0.250000  0.573092  1
  C  C10  1  0.279975  0.250000  0.017538  1
  C  C11  1  0.720025  0.750000  0.982462  1
  O  O12  1  0.652697  0.750000  0.128116  1
  O  O13  1  0.037882  0.250000  0.057229  1
  O  O14  1  0.464398  0.250000  0.130435  1
  O  O15  1  0.190424  0.946618  0.309895  1
  O  O16  1  0.190424  0.553382  0.309895  1
  O  O17  1  0.617868  0.750000  0.450020  1
  O  O18  1  0.827832  0.250000  0.397571  1
  O  O19  1  0.172168  0.750000  0.602429  1
  O  O20  1  0.382132  0.250000  0.549980  1
  O  O21  1  0.809576  0.446618  0.690105  1
  O  O22  1  0.809576  0.053382  0.690105  1
  O  O23  1  0.535602  0.750000  0.869565  1
  O  O24  1  0.962118  0.750000  0.942771  1
  O  O25  1  0.347303  0.250000  0.871884  1
