# generated using pymatgen
data_Na4Sn5O12
_symmetry_space_group_name_H-M   'P 1'
_cell_length_a   5.87903900
_cell_length_b   10.24904419
_cell_length_c   10.84257180
_cell_angle_alpha   72.83433160
_cell_angle_beta   77.60215481
_cell_angle_gamma   78.62055139
_symmetry_Int_Tables_number   1
_chemical_formula_structural   Na4Sn5O12
_chemical_formula_sum   'Na8 Sn10 O24'
_cell_volume   603.34344481
_cell_formula_units_Z   2
loop_
 _symmetry_equiv_pos_site_id
 _symmetry_equiv_pos_as_xyz
  1  'x, y, z'
loop_
 _atom_site_type_symbol
 _atom_site_label
 _atom_site_symmetry_multiplicity
 _atom_site_fract_x
 _atom_site_fract_y
 _atom_site_fract_z
 _atom_site_occupancy
  Na  Na0  1  0.137516  0.413137  0.400420  1
  Na  Na1  1  0.348892  0.575445  0.110039  1
  Na  Na2  1  0.274336  0.903894  0.024349  1
  Na  Na3  1  0.307193  0.780339  0.552587  1
  Na  Na4  1  0.692807  0.219661  0.447413  1
  Na  Na5  1  0.725664  0.096106  0.975651  1
  Na  Na6  1  0.651108  0.424555  0.889961  1
  Na  Na7  1  0.862484  0.586863  0.599580  1
  Sn  Sn8  1  0.265883  0.098205  0.267594  1
  Sn  Sn9  1  0.186241  0.100696  0.682378  1
  Sn  Sn10  1  0.188520  0.254561  0.934753  1
  Sn  Sn11  1  0.115551  0.593762  0.851635  1
  Sn  Sn12  1  0.407426  0.419465  0.645178  1
  Sn  Sn13  1  0.592574  0.580535  0.354822  1
  Sn  Sn14  1  0.884449  0.406238  0.148365  1
  Sn  Sn15  1  0.811480  0.745439  0.065247  1
  Sn  Sn16  1  0.813759  0.899304  0.317622  1
  Sn  Sn17  1  0.734117  0.901795  0.732406  1
  O  O18  1  0.050302  0.262764  0.298445  1
  O  O19  1  0.221879  0.422120  0.012427  1
  O  O20  1  0.341274  0.101073  0.081405  1
  O  O21  1  0.106618  0.101156  0.867760  1
  O  O22  1  0.062830  0.429353  0.778498  1
  O  O23  1  0.092080  0.938296  0.372624  1
  O  O24  1  0.316691  0.266122  0.571038  1
  O  O25  1  0.276241  0.567146  0.485285  1
  O  O26  1  0.562599  0.060618  0.341786  1
  O  O27  1  0.139224  0.733328  0.949265  1
  O  O28  1  0.564726  0.423025  0.269194  1
  O  O29  1  0.495907  0.731161  0.189978  1
  O  O30  1  0.504093  0.268839  0.810022  1
  O  O31  1  0.435274  0.576975  0.730806  1
  O  O32  1  0.860776  0.266672  0.050735  1
  O  O33  1  0.437401  0.939382  0.658214  1
  O  O34  1  0.723759  0.432854  0.514715  1
  O  O35  1  0.683309  0.733878  0.428962  1
  O  O36  1  0.907920  0.061704  0.627376  1
  O  O37  1  0.937170  0.570647  0.221502  1
  O  O38  1  0.893382  0.898844  0.132240  1
  O  O39  1  0.658726  0.898927  0.918595  1
  O  O40  1  0.778121  0.577880  0.987573  1
  O  O41  1  0.949698  0.737236  0.701555  1
