# generated using pymatgen
data_Li7Mn14O32
_symmetry_space_group_name_H-M   'P 1'
_cell_length_a   19.31771674
_cell_length_b   19.31771674
_cell_length_c   19.31771674
_cell_angle_alpha   17.36640810
_cell_angle_beta   17.36640810
_cell_angle_gamma   17.36640810
_symmetry_Int_Tables_number   1
_chemical_formula_structural   Li7Mn14O32
_chemical_formula_sum   'Li7 Mn14 O32'
_cell_volume   560.45910011
_cell_formula_units_Z   1
loop_
 _symmetry_equiv_pos_site_id
 _symmetry_equiv_pos_as_xyz
  1  'x, y, z'
loop_
 _atom_site_type_symbol
 _atom_site_label
 _atom_site_symmetry_multiplicity
 _atom_site_fract_x
 _atom_site_fract_y
 _atom_site_fract_z
 _atom_site_occupancy
  Li  Li0  1  0.403968  0.403968  0.403968  1
  Li  Li1  1  0.094349  0.094349  0.094349  1
  Li  Li2  1  0.845313  0.845313  0.845313  1
  Li  Li3  1  0.905889  0.905889  0.905889  1
  Li  Li4  1  0.154731  0.154731  0.154731  1
  Li  Li5  1  0.595473  0.595473  0.595473  1
  Li  Li6  1  0.655243  0.655243  0.655243  1
  Mn  Mn7  1  0.873235  0.873235  0.380264  1
  Mn  Mn8  1  0.380264  0.873235  0.873235  1
  Mn  Mn9  1  0.117666  0.627590  0.627590  1
  Mn  Mn10  1  0.000554  0.000554  0.000554  1
  Mn  Mn11  1  0.627590  0.117666  0.627590  1
  Mn  Mn12  1  0.873235  0.380264  0.873235  1
  Mn  Mn13  1  0.627590  0.627590  0.117666  1
  Mn  Mn14  1  0.499976  0.499976  0.499976  1
  Mn  Mn15  1  0.372326  0.882371  0.372326  1
  Mn  Mn16  1  0.372326  0.372326  0.882371  1
  Mn  Mn17  1  0.127765  0.617943  0.127765  1
  Mn  Mn18  1  0.617943  0.127765  0.127765  1
  Mn  Mn19  1  0.882371  0.372326  0.372326  1
  Mn  Mn20  1  0.127765  0.127765  0.617943  1
  O  O21  1  0.167446  0.731615  0.167446  1
  O  O22  1  0.731615  0.167446  0.167446  1
  O  O23  1  0.040459  0.567339  0.567339  1
  O  O24  1  0.690677  0.690677  0.690677  1
  O  O25  1  0.567339  0.040459  0.567339  1
  O  O26  1  0.567339  0.567339  0.040459  1
  O  O27  1  0.932719  0.932719  0.459738  1
  O  O28  1  0.167446  0.167446  0.731615  1
  O  O29  1  0.226961  0.668890  0.668890  1
  O  O30  1  0.459738  0.932719  0.932719  1
  O  O31  1  0.809527  0.809527  0.809527  1
  O  O32  1  0.059837  0.059837  0.059837  1
  O  O33  1  0.440497  0.440497  0.440497  1
  O  O34  1  0.331024  0.331025  0.773029  1
  O  O35  1  0.331024  0.773029  0.331024  1
  O  O36  1  0.067138  0.540410  0.067138  1
  O  O37  1  0.668890  0.226961  0.668890  1
  O  O38  1  0.932719  0.459738  0.932719  1
  O  O39  1  0.668890  0.668890  0.226961  1
  O  O40  1  0.559446  0.559446  0.559446  1
  O  O41  1  0.940449  0.940449  0.940449  1
  O  O42  1  0.190438  0.190438  0.190438  1
  O  O43  1  0.773029  0.331025  0.331024  1
  O  O44  1  0.540410  0.067138  0.067138  1
  O  O45  1  0.067138  0.067138  0.540410  1
  O  O46  1  0.830920  0.830920  0.272645  1
  O  O47  1  0.433136  0.433136  0.958633  1
  O  O48  1  0.433136  0.958633  0.433136  1
  O  O49  1  0.958633  0.433136  0.433136  1
  O  O50  1  0.308895  0.308895  0.308895  1
  O  O51  1  0.272645  0.830920  0.830920  1
  O  O52  1  0.830920  0.272645  0.830920  1
