# generated using pymatgen
data_Fe4O7F
_symmetry_space_group_name_H-M   'P 1'
_cell_length_a   5.52082654
_cell_length_b   5.52082654
_cell_length_c   5.52082654
_cell_angle_alpha   113.77817893
_cell_angle_beta   108.70214207
_cell_angle_gamma   106.03084404
_symmetry_Int_Tables_number   1
_chemical_formula_structural   Fe4O7F
_chemical_formula_sum   'Fe4 O7 F1'
_cell_volume   128.91784164
_cell_formula_units_Z   1
loop_
 _symmetry_equiv_pos_site_id
 _symmetry_equiv_pos_as_xyz
  1  'x, y, z'
loop_
 _atom_site_type_symbol
 _atom_site_label
 _atom_site_symmetry_multiplicity
 _atom_site_fract_x
 _atom_site_fract_y
 _atom_site_fract_z
 _atom_site_occupancy
  Fe  Fe0  1  0.730004  0.730004  0.000000  1
  Fe  Fe1  1  0.756117  0.256117  0.500000  1
  Fe  Fe2  1  0.258427  0.516220  0.257793  1
  Fe  Fe3  1  0.258427  0.000634  0.742207  1
  O  O4  1  0.452126  0.952126  0.500000  1
  O  O5  1  0.432465  0.432465  0.000000  1
  O  O6  1  0.943079  0.497315  0.939932  1
  O  O7  1  0.943079  0.003147  0.445764  1
  O  O8  1  0.557383  0.497315  0.554236  1
  O  O9  1  0.557383  0.003147  0.060068  1
  O  O10  1  0.064845  0.564845  0.500000  1
  F  F11  1  0.046664  0.046664  0.000000  1
