# generated using pymatgen
data_Na3SnPCO7
_symmetry_space_group_name_H-M   'P 1'
_cell_length_a   5.43318580
_cell_length_b   7.05115003
_cell_length_c   9.39793998
_cell_angle_alpha   90.00000000
_cell_angle_beta   92.92505112
_cell_angle_gamma   90.00000000
_symmetry_Int_Tables_number   1
_chemical_formula_structural   Na3SnPCO7
_chemical_formula_sum   'Na6 Sn2 P2 C2 O14'
_cell_volume   359.56795988
_cell_formula_units_Z   2
loop_
 _symmetry_equiv_pos_site_id
 _symmetry_equiv_pos_as_xyz
  1  'x, y, z'
loop_
 _atom_site_type_symbol
 _atom_site_label
 _atom_site_symmetry_multiplicity
 _atom_site_fract_x
 _atom_site_fract_y
 _atom_site_fract_z
 _atom_site_occupancy
  Na  Na0  1  0.007481  0.524265  0.984168  1
  Na  Na1  1  0.496762  0.802584  0.828572  1
  Na  Na2  1  0.476234  0.522064  0.510677  1
  Na  Na3  1  0.523766  0.022064  0.489323  1
  Na  Na4  1  0.503238  0.302584  0.171428  1
  Na  Na5  1  0.992519  0.024265  0.015832  1
  Sn  Sn6  1  0.053017  0.248270  0.684033  1
  Sn  Sn7  1  0.946983  0.748270  0.315967  1
  P  P8  1  0.002571  0.761067  0.673516  1
  P  P9  1  0.997429  0.261067  0.326484  1
  C  C10  1  0.500264  0.259513  0.856890  1
  C  C11  1  0.499736  0.759513  0.143110  1
  O  O12  1  0.704206  0.275664  0.931428  1
  O  O13  1  0.292475  0.234730  0.919267  1
  O  O14  1  0.919743  0.885229  0.797170  1
  O  O15  1  0.072103  0.559000  0.736781  1
  O  O16  1  0.489361  0.267053  0.717049  1
  O  O17  1  0.238030  0.838800  0.607236  1
  O  O18  1  0.785436  0.747162  0.558271  1
  O  O19  1  0.214564  0.247162  0.441729  1
  O  O20  1  0.761970  0.338800  0.392764  1
  O  O21  1  0.510639  0.767053  0.282951  1
  O  O22  1  0.927897  0.059000  0.263219  1
  O  O23  1  0.080257  0.385229  0.202830  1
  O  O24  1  0.707525  0.734730  0.080733  1
  O  O25  1  0.295794  0.775664  0.068572  1
