# generated using pymatgen
data_Li2Fe2OF4
_symmetry_space_group_name_H-M   'P 1'
_cell_length_a   5.20398905
_cell_length_b   5.20398905
_cell_length_c   12.82115115
_cell_angle_alpha   90.00000000
_cell_angle_beta   90.00000000
_cell_angle_gamma   146.44371736
_symmetry_Int_Tables_number   1
_chemical_formula_structural   Li2Fe2OF4
_chemical_formula_sum   'Li4 Fe4 O2 F8'
_cell_volume   191.92569556
_cell_formula_units_Z   2
loop_
 _symmetry_equiv_pos_site_id
 _symmetry_equiv_pos_as_xyz
  1  'x, y, z'
loop_
 _atom_site_type_symbol
 _atom_site_label
 _atom_site_symmetry_multiplicity
 _atom_site_fract_x
 _atom_site_fract_y
 _atom_site_fract_z
 _atom_site_occupancy
  Li  Li0  1  0.770725  0.229275  0.886803  1
  Li  Li1  1  0.229275  0.770725  0.386803  1
  Li  Li2  1  0.506158  0.493842  0.993367  1
  Li  Li3  1  0.493842  0.506158  0.493367  1
  Fe  Fe4  1  0.962276  0.037724  0.261047  1
  Fe  Fe5  1  0.757637  0.242363  0.614116  1
  Fe  Fe6  1  0.037724  0.962276  0.761047  1
  Fe  Fe7  1  0.242363  0.757637  0.114116  1
  O  O8  1  0.670617  0.329383  0.751555  1
  O  O9  1  0.329383  0.670617  0.251555  1
  F  F10  1  0.866122  0.133878  0.031602  1
  F  F11  1  0.852120  0.147880  0.466671  1
  F  F12  1  0.582967  0.417033  0.143315  1
  F  F13  1  0.580572  0.419428  0.351523  1
  F  F14  1  0.417033  0.582967  0.643315  1
  F  F15  1  0.133878  0.866122  0.531602  1
  F  F16  1  0.419428  0.580572  0.851523  1
  F  F17  1  0.147880  0.852120  0.966671  1
