# generated using pymatgen
data_Gd3AsO7
_symmetry_space_group_name_H-M   'P 1'
_cell_length_a   6.44122244
_cell_length_b   6.44122244
_cell_length_c   7.45789978
_cell_angle_alpha   90.00000000
_cell_angle_beta   90.00000000
_cell_angle_gamma   109.38288607
_symmetry_Int_Tables_number   1
_chemical_formula_structural   Gd3AsO7
_chemical_formula_sum   'Gd6 As2 O14'
_cell_volume   291.88583662
_cell_formula_units_Z   2
loop_
 _symmetry_equiv_pos_site_id
 _symmetry_equiv_pos_as_xyz
  1  'x, y, z'
loop_
 _atom_site_type_symbol
 _atom_site_label
 _atom_site_symmetry_multiplicity
 _atom_site_fract_x
 _atom_site_fract_y
 _atom_site_fract_z
 _atom_site_occupancy
  Gd  Gd0  1  0.464913  0.001786  0.251998  1
  Gd  Gd1  1  0.998214  0.535087  0.248002  1
  Gd  Gd2  1  0.488863  0.488863  0.000000  1
  Gd  Gd3  1  0.511137  0.511137  0.500000  1
  Gd  Gd4  1  0.535087  0.998214  0.751998  1
  Gd  Gd5  1  0.001786  0.464913  0.748002  1
  As  As6  1  0.999699  0.999699  0.500000  1
  As  As7  1  0.000301  0.000301  0.000000  1
  O  O8  1  0.942271  0.057729  0.750000  1
  O  O9  1  0.635442  0.364558  0.750000  1
  O  O10  1  0.299242  0.056783  0.529754  1
  O  O11  1  0.943217  0.700758  0.970246  1
  O  O12  1  0.629330  0.370670  0.250000  1
  O  O13  1  0.933040  0.694517  0.526592  1
  O  O14  1  0.305483  0.066960  0.973408  1
  O  O15  1  0.066960  0.305483  0.026592  1
  O  O16  1  0.694517  0.933040  0.473408  1
  O  O17  1  0.370670  0.629330  0.750000  1
  O  O18  1  0.700758  0.943217  0.029754  1
  O  O19  1  0.056783  0.299242  0.470246  1
  O  O20  1  0.364558  0.635442  0.250000  1
  O  O21  1  0.057729  0.942271  0.250000  1
