# generated using pymatgen
data_Li3Ni3OF7
_symmetry_space_group_name_H-M   'P 1'
_cell_length_a   5.96086799
_cell_length_b   5.96086799
_cell_length_c   5.96086799
_cell_angle_alpha   60.46030091
_cell_angle_beta   60.46030091
_cell_angle_gamma   60.46030091
_symmetry_Int_Tables_number   1
_chemical_formula_structural   Li3Ni3OF7
_chemical_formula_sum   'Li3 Ni3 O1 F7'
_cell_volume   151.32448054
_cell_formula_units_Z   1
loop_
 _symmetry_equiv_pos_site_id
 _symmetry_equiv_pos_as_xyz
  1  'x, y, z'
loop_
 _atom_site_type_symbol
 _atom_site_label
 _atom_site_symmetry_multiplicity
 _atom_site_fract_x
 _atom_site_fract_y
 _atom_site_fract_z
 _atom_site_occupancy
  Li  Li0  1  0.999532  0.999532  0.999532  1
  Li  Li1  1  0.743981  0.743981  0.743981  1
  Li  Li2  1  0.375836  0.375836  0.375836  1
  Ni  Ni3  1  0.384769  0.866686  0.384769  1
  Ni  Ni4  1  0.384769  0.384769  0.866686  1
  Ni  Ni5  1  0.866686  0.384769  0.384769  1
  O  O6  1  0.613912  0.613912  0.613912  1
  F  F7  1  0.143507  0.617423  0.617423  1
  F  F8  1  0.617423  0.143507  0.617423  1
  F  F9  1  0.617423  0.617423  0.143507  1
  F  F10  1  0.131674  0.131674  0.603442  1
  F  F11  1  0.131674  0.603442  0.131674  1
  F  F12  1  0.603442  0.131674  0.131674  1
  F  F13  1  0.135371  0.135371  0.135371  1
