# generated using pymatgen
data_Mn3Fe3O8
_symmetry_space_group_name_H-M   'P 1'
_cell_length_a   5.97636617
_cell_length_b   5.97636617
_cell_length_c   5.97636617
_cell_angle_alpha   118.59715653
_cell_angle_beta   117.24675932
_cell_angle_gamma   93.64234387
_symmetry_Int_Tables_number   1
_chemical_formula_structural   Mn3Fe3O8
_chemical_formula_sum   'Mn3 Fe3 O8'
_cell_volume   155.31366495
_cell_formula_units_Z   1
loop_
 _symmetry_equiv_pos_site_id
 _symmetry_equiv_pos_as_xyz
  1  'x, y, z'
loop_
 _atom_site_type_symbol
 _atom_site_label
 _atom_site_symmetry_multiplicity
 _atom_site_fract_x
 _atom_site_fract_y
 _atom_site_fract_z
 _atom_site_occupancy
  Mn  Mn0  1  0.126637  0.375449  0.751187  1
  Mn  Mn1  1  0.504882  0.004882  0.500000  1
  Mn  Mn2  1  0.624262  0.375449  0.248813  1
  Fe  Fe3  1  0.124251  0.873865  0.749614  1
  Fe  Fe4  1  0.749364  0.749364  0.000000  1
  Fe  Fe5  1  0.124251  0.374637  0.250386  1
  O  O6  1  0.886752  0.616021  0.729269  1
  O  O7  1  0.922264  0.138076  0.784188  1
  O  O8  1  0.331106  0.612840  0.718266  1
  O  O9  1  0.353888  0.138076  0.215812  1
  O  O10  1  0.360507  0.129860  0.769352  1
  O  O11  1  0.886752  0.157483  0.270731  1
  O  O12  1  0.360507  0.591155  0.230648  1
  O  O13  1  0.894574  0.612840  0.281734  1
