# generated using pymatgen
data_Li4Ti3Cr3(SnO8)2
_symmetry_space_group_name_H-M   'P 1'
_cell_length_a   5.96576754
_cell_length_b   5.96576754
_cell_length_c   9.81762288
_cell_angle_alpha   89.91399878
_cell_angle_beta   90.08600122
_cell_angle_gamma   119.91313563
_symmetry_Int_Tables_number   1
_chemical_formula_structural   Li4Ti3Cr3(SnO8)2
_chemical_formula_sum   'Li4 Ti3 Cr3 Sn2 O16'
_cell_volume   302.86455701
_cell_formula_units_Z   1
loop_
 _symmetry_equiv_pos_site_id
 _symmetry_equiv_pos_as_xyz
  1  'x, y, z'
loop_
 _atom_site_type_symbol
 _atom_site_label
 _atom_site_symmetry_multiplicity
 _atom_site_fract_x
 _atom_site_fract_y
 _atom_site_fract_z
 _atom_site_occupancy
  Li  Li0  1  0.665406  0.334594  0.107115  1
  Li  Li1  1  0.999108  0.000892  0.007558  1
  Li  Li2  1  0.999108  0.000892  0.505912  1
  Li  Li3  1  0.333536  0.666464  0.603266  1
  Ti  Ti4  1  0.170309  0.829691  0.284695  1
  Ti  Ti5  1  0.829314  0.659736  0.784771  1
  Ti  Ti6  1  0.340264  0.170686  0.784771  1
  Cr  Cr7  1  0.829789  0.170211  0.786351  1
  Cr  Cr8  1  0.661332  0.831489  0.285704  1
  Cr  Cr9  1  0.168511  0.338668  0.285704  1
  Sn  Sn10  1  0.669705  0.330295  0.506241  1
  Sn  Sn11  1  0.336054  0.663946  0.011588  1
  O  O12  1  0.844256  0.677278  0.398286  1
  O  O13  1  0.518516  0.481484  0.660253  1
  O  O14  1  0.663477  0.336523  0.894952  1
  O  O15  1  0.999186  0.000814  0.690974  1
  O  O16  1  0.002351  0.997649  0.191165  1
  O  O17  1  0.322722  0.155744  0.398286  1
  O  O18  1  0.964818  0.486370  0.662598  1
  O  O19  1  0.513630  0.035182  0.662598  1
  O  O20  1  0.163356  0.836644  0.898301  1
  O  O21  1  0.841067  0.158933  0.400691  1
  O  O22  1  0.477614  0.966975  0.162600  1
  O  O23  1  0.033025  0.522386  0.162600  1
  O  O24  1  0.328393  0.671607  0.393394  1
  O  O25  1  0.679035  0.835741  0.899284  1
  O  O26  1  0.482384  0.517616  0.163198  1
  O  O27  1  0.164259  0.320965  0.899284  1
