# generated using pymatgen
data_V2Si2O7
_symmetry_space_group_name_H-M   'P 1'
_cell_length_a   6.53532683
_cell_length_b   6.53532683
_cell_length_c   6.53532683
_cell_angle_alpha   60.00000000
_cell_angle_beta   60.00000000
_cell_angle_gamma   60.00000000
_symmetry_Int_Tables_number   1
_chemical_formula_structural   V2Si2O7
_chemical_formula_sum   'V4 Si4 O14'
_cell_volume   197.37263349
_cell_formula_units_Z   2
loop_
 _symmetry_equiv_pos_site_id
 _symmetry_equiv_pos_as_xyz
  1  'x, y, z'
loop_
 _atom_site_type_symbol
 _atom_site_label
 _atom_site_symmetry_multiplicity
 _atom_site_fract_x
 _atom_site_fract_y
 _atom_site_fract_z
 _atom_site_occupancy
  V  V0  1  0.125000  0.625000  0.125000  1
  V  V1  1  0.125000  0.125000  0.625000  1
  V  V2  1  0.625000  0.125000  0.125000  1
  V  V3  1  0.125000  0.125000  0.125000  1
  Si  Si4  1  0.625000  0.625000  0.625000  1
  Si  Si5  1  0.125000  0.625000  0.625000  1
  Si  Si6  1  0.625000  0.625000  0.125000  1
  Si  Si7  1  0.625000  0.125000  0.625000  1
  O  O8  1  1.000000  1.000000  1.000000  1
  O  O9  1  0.952024  0.547976  0.547976  1
  O  O10  1  0.952024  0.952024  0.547976  1
  O  O11  1  0.547976  0.547976  0.952024  1
  O  O12  1  0.547976  0.952024  0.547976  1
  O  O13  1  0.952024  0.547976  0.952024  1
  O  O14  1  0.702024  0.297976  0.297976  1
  O  O15  1  0.547976  0.952024  0.952024  1
  O  O16  1  0.297976  0.702024  0.297976  1
  O  O17  1  0.297976  0.297976  0.702024  1
  O  O18  1  0.702024  0.297976  0.702024  1
  O  O19  1  0.702024  0.702024  0.297976  1
  O  O20  1  0.297976  0.702024  0.702024  1
  O  O21  1  0.250000  0.250000  0.250000  1
