# generated using pymatgen
data_Li2VO2F
_symmetry_space_group_name_H-M   'P 1'
_cell_length_a   6.71502599
_cell_length_b   6.71502599
_cell_length_c   5.94913387
_cell_angle_alpha   77.56883737
_cell_angle_beta   102.43116263
_cell_angle_gamma   154.66327603
_symmetry_Int_Tables_number   1
_chemical_formula_structural   Li2VO2F
_chemical_formula_sum   'Li4 V2 O4 F2'
_cell_volume   111.96758521
_cell_formula_units_Z   2
loop_
 _symmetry_equiv_pos_site_id
 _symmetry_equiv_pos_as_xyz
  1  'x, y, z'
loop_
 _atom_site_type_symbol
 _atom_site_label
 _atom_site_symmetry_multiplicity
 _atom_site_fract_x
 _atom_site_fract_y
 _atom_site_fract_z
 _atom_site_occupancy
  Li  Li0  1  0.332621  0.667379  0.656096  1
  Li  Li1  1  0.667379  0.332621  0.343904  1
  Li  Li2  1  0.000000  0.000000  0.500000  1
  Li  Li3  1  0.000000  0.000000  0.000000  1
  V  V4  1  0.330865  0.669135  0.174828  1
  V  V5  1  0.669135  0.330865  0.825172  1
  O  O6  1  0.837864  0.162136  0.404452  1
  O  O7  1  0.831390  0.168610  0.932636  1
  O  O8  1  0.162136  0.837864  0.595548  1
  O  O9  1  0.168610  0.831390  0.067364  1
  F  F10  1  0.497820  0.502180  0.244930  1
  F  F11  1  0.502180  0.497820  0.755070  1
