# generated using pymatgen
data_Na5Sn2P(CO4)4
_symmetry_space_group_name_H-M   'P 1'
_cell_length_a   10.16638179
_cell_length_b   10.16638179
_cell_length_c   9.94566548
_cell_angle_alpha   61.13416608
_cell_angle_beta   118.86583392
_cell_angle_gamma   88.90576409
_symmetry_Int_Tables_number   1
_chemical_formula_structural   Na5Sn2P(CO4)4
_chemical_formula_sum   'Na10 Sn4 P2 C8 O32'
_cell_volume   744.54116188
_cell_formula_units_Z   2
loop_
 _symmetry_equiv_pos_site_id
 _symmetry_equiv_pos_as_xyz
  1  'x, y, z'
loop_
 _atom_site_type_symbol
 _atom_site_label
 _atom_site_symmetry_multiplicity
 _atom_site_fract_x
 _atom_site_fract_y
 _atom_site_fract_z
 _atom_site_occupancy
  Na  Na0  1  0.326940  0.929308  0.141146  1
  Na  Na1  1  0.070692  0.673060  0.641146  1
  Na  Na2  1  0.929877  0.328304  0.744454  1
  Na  Na3  1  0.930443  0.930443  0.750000  1
  Na  Na4  1  0.328304  0.929877  0.755546  1
  Na  Na5  1  0.671696  0.070123  0.244454  1
  Na  Na6  1  0.070123  0.671696  0.255546  1
  Na  Na7  1  0.069557  0.069557  0.250000  1
  Na  Na8  1  0.929308  0.326940  0.358854  1
  Na  Na9  1  0.673060  0.070692  0.858854  1
  Sn  Sn10  1  0.500000  0.000000  0.500000  1
  Sn  Sn11  1  0.500000  0.500000  0.500000  1
  Sn  Sn12  1  0.000000  0.500000  0.000000  1
  Sn  Sn13  1  0.500000  0.500000  0.000000  1
  P  P14  1  0.874492  0.874492  0.250000  1
  P  P15  1  0.125508  0.125508  0.750000  1
  C  C16  1  0.710152  0.717462  0.546148  1
  C  C17  1  0.340987  0.712744  0.568734  1
  C  C18  1  0.712744  0.340987  0.931266  1
  C  C19  1  0.717462  0.710152  0.953852  1
  C  C20  1  0.282538  0.289848  0.046148  1
  C  C21  1  0.287256  0.659013  0.068734  1
  C  C22  1  0.659013  0.287256  0.431266  1
  C  C23  1  0.289848  0.282538  0.453852  1
  O  O24  1  0.690115  0.941761  0.122092  1
  O  O25  1  0.941770  0.934066  0.125261  1
  O  O26  1  0.934066  0.941770  0.374739  1
  O  O27  1  0.941761  0.690115  0.377908  1
  O  O28  1  0.590912  0.845751  0.413455  1
  O  O29  1  0.351653  0.690338  0.453157  1
  O  O30  1  0.311560  0.853309  0.530490  1
  O  O31  1  0.697559  0.577161  0.572737  1
  O  O32  1  0.844595  0.714766  0.663265  1
  O  O33  1  0.354957  0.590362  0.713880  1
  O  O34  1  0.714766  0.844595  0.836735  1
  O  O35  1  0.590362  0.354957  0.786120  1
  O  O36  1  0.154249  0.409088  0.913455  1
  O  O37  1  0.309662  0.648347  0.953157  1
  O  O38  1  0.577161  0.697559  0.927263  1
  O  O39  1  0.853309  0.311560  0.969510  1
  O  O40  1  0.422839  0.302441  0.072737  1
  O  O41  1  0.146691  0.688440  0.030490  1
  O  O42  1  0.690338  0.351653  0.046843  1
  O  O43  1  0.845751  0.590912  0.086545  1
  O  O44  1  0.409638  0.645043  0.213880  1
  O  O45  1  0.285234  0.155405  0.163265  1
  O  O46  1  0.645043  0.409638  0.286120  1
  O  O47  1  0.155405  0.285234  0.336735  1
  O  O48  1  0.688440  0.146691  0.469510  1
  O  O49  1  0.302441  0.422839  0.427263  1
  O  O50  1  0.648347  0.309662  0.546843  1
  O  O51  1  0.409088  0.154249  0.586545  1
  O  O52  1  0.058239  0.309885  0.622092  1
  O  O53  1  0.065934  0.058230  0.625261  1
  O  O54  1  0.058230  0.065934  0.874739  1
  O  O55  1  0.309885  0.058239  0.877908  1
