# generated using pymatgen
data_LiV3(O2F)2
_symmetry_space_group_name_H-M   'P 1'
_cell_length_a   4.90295493
_cell_length_b   8.66088450
_cell_length_c   10.29891976
_cell_angle_alpha   90.00000000
_cell_angle_beta   90.00000000
_cell_angle_gamma   90.00000000
_symmetry_Int_Tables_number   1
_chemical_formula_structural   LiV3(O2F)2
_chemical_formula_sum   'Li4 V12 O16 F8'
_cell_volume   437.33257059
_cell_formula_units_Z   4
loop_
 _symmetry_equiv_pos_site_id
 _symmetry_equiv_pos_as_xyz
  1  'x, y, z'
loop_
 _atom_site_type_symbol
 _atom_site_label
 _atom_site_symmetry_multiplicity
 _atom_site_fract_x
 _atom_site_fract_y
 _atom_site_fract_z
 _atom_site_occupancy
  Li  Li0  1  0.955841  0.250000  0.719672  1
  Li  Li1  1  0.544159  0.250000  0.219672  1
  Li  Li2  1  0.455841  0.750000  0.780328  1
  Li  Li3  1  0.044159  0.750000  0.280328  1
  V  V4  1  0.037424  0.750000  0.600513  1
  V  V5  1  0.011974  0.924895  0.858431  1
  V  V6  1  0.011974  0.575105  0.858431  1
  V  V7  1  0.488026  0.924895  0.358431  1
  V  V8  1  0.488026  0.575105  0.358431  1
  V  V9  1  0.462576  0.750000  0.100513  1
  V  V10  1  0.537424  0.250000  0.899487  1
  V  V11  1  0.511974  0.424895  0.641569  1
  V  V12  1  0.511974  0.075105  0.641569  1
  V  V13  1  0.988026  0.424895  0.141569  1
  V  V14  1  0.988026  0.075105  0.141569  1
  V  V15  1  0.962576  0.250000  0.399487  1
  O  O16  1  0.737922  0.250000  0.561559  1
  O  O17  1  0.745038  0.418192  0.800943  1
  O  O18  1  0.745038  0.081808  0.800943  1
  O  O19  1  0.825348  0.750000  0.767395  1
  O  O20  1  0.674652  0.750000  0.267395  1
  O  O21  1  0.754962  0.418192  0.300943  1
  O  O22  1  0.754962  0.081808  0.300943  1
  O  O23  1  0.762078  0.250000  0.061559  1
  O  O24  1  0.237922  0.750000  0.938441  1
  O  O25  1  0.245038  0.581808  0.699057  1
  O  O26  1  0.245038  0.918192  0.699057  1
  O  O27  1  0.325348  0.250000  0.732605  1
  O  O28  1  0.174652  0.250000  0.232605  1
  O  O29  1  0.254962  0.918192  0.199057  1
  O  O30  1  0.254962  0.581808  0.199057  1
  O  O31  1  0.262078  0.750000  0.438441  1
  F  F32  1  0.766161  0.911468  0.031705  1
  F  F33  1  0.766161  0.588532  0.031705  1
  F  F34  1  0.733839  0.911468  0.531705  1
  F  F35  1  0.733839  0.588532  0.531705  1
  F  F36  1  0.266161  0.411468  0.468295  1
  F  F37  1  0.266161  0.088532  0.468295  1
  F  F38  1  0.233839  0.411468  0.968295  1
  F  F39  1  0.233839  0.088532  0.968295  1
