# generated using pymatgen
data_Fe3(OF3)2
_symmetry_space_group_name_H-M   'P 1'
_cell_length_a   5.62400945
_cell_length_b   4.76498904
_cell_length_c   10.01543626
_cell_angle_alpha   90.00000000
_cell_angle_beta   93.64467550
_cell_angle_gamma   90.00000000
_symmetry_Int_Tables_number   1
_chemical_formula_structural   Fe3(OF3)2
_chemical_formula_sum   'Fe6 O4 F12'
_cell_volume   267.85425751
_cell_formula_units_Z   2
loop_
 _symmetry_equiv_pos_site_id
 _symmetry_equiv_pos_as_xyz
  1  'x, y, z'
loop_
 _atom_site_type_symbol
 _atom_site_label
 _atom_site_symmetry_multiplicity
 _atom_site_fract_x
 _atom_site_fract_y
 _atom_site_fract_z
 _atom_site_occupancy
  Fe  Fe0  1  0.500000  0.500000  0.000000  1
  Fe  Fe1  1  0.255970  0.979879  0.760628  1
  Fe  Fe2  1  0.744030  0.479879  0.739372  1
  Fe  Fe3  1  0.500000  0.000000  0.500000  1
  Fe  Fe4  1  0.255970  0.520121  0.260628  1
  Fe  Fe5  1  0.744030  0.020121  0.239372  1
  O  O6  1  0.480197  0.680353  0.830023  1
  O  O7  1  0.519803  0.180353  0.669977  1
  O  O8  1  0.480197  0.819647  0.330023  1
  O  O9  1  0.519803  0.319647  0.169977  1
  F  F10  1  0.292994  0.196974  0.924389  1
  F  F11  1  0.762998  0.311608  0.923659  1
  F  F12  1  0.979858  0.762983  0.808105  1
  F  F13  1  0.020142  0.262983  0.691895  1
  F  F14  1  0.237002  0.811608  0.576341  1
  F  F15  1  0.707006  0.696974  0.575611  1
  F  F16  1  0.292994  0.303026  0.424389  1
  F  F17  1  0.762998  0.188392  0.423659  1
  F  F18  1  0.979858  0.737017  0.308105  1
  F  F19  1  0.020142  0.237017  0.191895  1
  F  F20  1  0.237002  0.688392  0.076341  1
  F  F21  1  0.707006  0.803026  0.075611  1
