# generated using pymatgen
data_V3O5F3
_symmetry_space_group_name_H-M   'P 1'
_cell_length_a   7.31190139
_cell_length_b   7.31190139
_cell_length_c   5.00073597
_cell_angle_alpha   89.73599116
_cell_angle_beta   90.26400884
_cell_angle_gamma   77.38598019
_symmetry_Int_Tables_number   1
_chemical_formula_structural   V3O5F3
_chemical_formula_sum   'V6 O10 F6'
_cell_volume   260.89862433
_cell_formula_units_Z   2
loop_
 _symmetry_equiv_pos_site_id
 _symmetry_equiv_pos_as_xyz
  1  'x, y, z'
loop_
 _atom_site_type_symbol
 _atom_site_label
 _atom_site_symmetry_multiplicity
 _atom_site_fract_x
 _atom_site_fract_y
 _atom_site_fract_z
 _atom_site_occupancy
  V  V0  1  0.824269  0.313040  0.240127  1
  V  V1  1  0.669988  0.667815  0.737585  1
  V  V2  1  0.686960  0.175731  0.740127  1
  V  V3  1  0.348541  0.839343  0.226630  1
  V  V4  1  0.332185  0.330012  0.237585  1
  V  V5  1  0.160657  0.651459  0.726630  1
  O  O6  1  0.932008  0.678461  0.636861  1
  O  O7  1  0.903047  0.191375  0.958925  1
  O  O8  1  0.808625  0.096953  0.458925  1
  O  O9  1  0.694313  0.437181  0.595236  1
  O  O10  1  0.548013  0.793268  0.422387  1
  O  O11  1  0.562819  0.305687  0.095236  1
  O  O12  1  0.436239  0.709265  0.918409  1
  O  O13  1  0.290735  0.563761  0.418409  1
  O  O14  1  0.321539  0.067992  0.136861  1
  O  O15  1  0.206732  0.451987  0.922387  1
  F  F16  1  0.792211  0.566670  0.082976  1
  F  F17  1  0.676631  0.929136  0.880322  1
  F  F18  1  0.433330  0.207789  0.582976  1
  F  F19  1  0.188624  0.893950  0.543081  1
  F  F20  1  0.106050  0.811376  0.043081  1
  F  F21  1  0.070864  0.323369  0.380322  1
