# generated using pymatgen
data_LiVOF3
_symmetry_space_group_name_H-M   'P 1'
_cell_length_a   5.14435728
_cell_length_b   6.03302756
_cell_length_c   9.90322269
_cell_angle_alpha   90.00000000
_cell_angle_beta   90.00000000
_cell_angle_gamma   90.00000000
_symmetry_Int_Tables_number   1
_chemical_formula_structural   LiVOF3
_chemical_formula_sum   'Li4 V4 O4 F12'
_cell_volume   307.35690669
_cell_formula_units_Z   4
loop_
 _symmetry_equiv_pos_site_id
 _symmetry_equiv_pos_as_xyz
  1  'x, y, z'
loop_
 _atom_site_type_symbol
 _atom_site_label
 _atom_site_symmetry_multiplicity
 _atom_site_fract_x
 _atom_site_fract_y
 _atom_site_fract_z
 _atom_site_occupancy
  Li  Li0  1  0.570302  0.829921  0.131380  1
  Li  Li1  1  0.929698  0.170079  0.631380  1
  Li  Li2  1  0.070302  0.670079  0.868620  1
  Li  Li3  1  0.429698  0.329921  0.368620  1
  V  V4  1  0.690844  0.632983  0.593915  1
  V  V5  1  0.809156  0.367017  0.093915  1
  V  V6  1  0.190844  0.867017  0.406085  1
  V  V7  1  0.309156  0.132983  0.906085  1
  O  O8  1  0.629030  0.161542  0.022442  1
  O  O9  1  0.870970  0.838458  0.522442  1
  O  O10  1  0.129030  0.338458  0.977558  1
  O  O11  1  0.370970  0.661542  0.477558  1
  F  F12  1  0.503040  0.730966  0.740094  1
  F  F13  1  0.551608  0.492551  0.212066  1
  F  F14  1  0.712669  0.353232  0.507471  1
  F  F15  1  0.787331  0.646768  0.007471  1
  F  F16  1  0.948392  0.507449  0.712066  1
  F  F17  1  0.996960  0.269034  0.240094  1
  F  F18  1  0.003040  0.769034  0.259906  1
  F  F19  1  0.051608  0.007449  0.787934  1
  F  F20  1  0.212669  0.146768  0.492529  1
  F  F21  1  0.287331  0.853232  0.992529  1
  F  F22  1  0.448392  0.992551  0.287934  1
  F  F23  1  0.496960  0.230966  0.759906  1
