# generated using pymatgen
data_Ba8In6O17
_symmetry_space_group_name_H-M   'P 1'
_cell_length_a   6.19972366
_cell_length_b   6.23747398
_cell_length_c   15.15140569
_cell_angle_alpha   101.84627364
_cell_angle_beta   90.02469852
_cell_angle_gamma   90.04168914
_symmetry_Int_Tables_number   1
_chemical_formula_structural   Ba8In6O17
_chemical_formula_sum   'Ba8 In6 O17'
_cell_volume   573.43507236
_cell_formula_units_Z   1
loop_
 _symmetry_equiv_pos_site_id
 _symmetry_equiv_pos_as_xyz
  1  'x, y, z'
loop_
 _atom_site_type_symbol
 _atom_site_label
 _atom_site_symmetry_multiplicity
 _atom_site_fract_x
 _atom_site_fract_y
 _atom_site_fract_z
 _atom_site_occupancy
  Ba  Ba0  1  0.757758  0.191463  0.863558  1
  Ba  Ba1  1  0.733318  0.035762  0.589506  1
  Ba  Ba2  1  0.266682  0.964238  0.410494  1
  Ba  Ba3  1  0.242242  0.808537  0.136442  1
  Ba  Ba4  1  0.731841  0.446561  0.411084  1
  Ba  Ba5  1  0.757190  0.328068  0.137151  1
  Ba  Ba6  1  0.242810  0.671932  0.862849  1
  Ba  Ba7  1  0.268159  0.553439  0.588916  1
  In  In8  1  0.775218  0.869159  0.281378  1
  In  In9  1  0.734033  0.765258  0.999911  1
  In  In10  1  0.265967  0.234742  0.000089  1
  In  In11  1  0.224782  0.130841  0.718622  1
  In  In12  1  0.777685  0.586312  0.718679  1
  In  In13  1  0.222315  0.413688  0.281321  1
  O  O14  1  0.500000  0.500000  0.000000  1
  O  O15  1  0.697096  0.027222  0.415488  1
  O  O16  1  0.504669  0.354323  0.721502  1
  O  O17  1  0.806871  0.751923  0.135995  1
  O  O18  1  0.193129  0.248077  0.864005  1
  O  O19  1  0.002738  0.341015  0.679869  1
  O  O20  1  0.302904  0.972778  0.584512  1
  O  O21  1  0.805094  0.617814  0.863336  1
  O  O22  1  0.495331  0.645677  0.278498  1
  O  O23  1  0.500000  0.000000  0.000000  1
  O  O24  1  0.695986  0.612077  0.585109  1
  O  O25  1  0.001521  0.867280  0.734768  1
  O  O26  1  0.000000  0.000000  0.000000  1
  O  O27  1  0.997262  0.658985  0.320131  1
  O  O28  1  0.304014  0.387923  0.414891  1
  O  O29  1  0.194906  0.382186  0.136664  1
  O  O30  1  0.998479  0.132720  0.265232  1
