# generated using pymatgen
data_Li5MnO4
_symmetry_space_group_name_H-M   'P 1'
_cell_length_a   8.84405219
_cell_length_b   9.46759164
_cell_length_c   9.47431011
_cell_angle_alpha   90.00000000
_cell_angle_beta   90.00000000
_cell_angle_gamma   90.00000000
_symmetry_Int_Tables_number   1
_chemical_formula_structural   Li5MnO4
_chemical_formula_sum   'Li40 Mn8 O32'
_cell_volume   793.30174584
_cell_formula_units_Z   8
loop_
 _symmetry_equiv_pos_site_id
 _symmetry_equiv_pos_as_xyz
  1  'x, y, z'
loop_
 _atom_site_type_symbol
 _atom_site_label
 _atom_site_symmetry_multiplicity
 _atom_site_fract_x
 _atom_site_fract_y
 _atom_site_fract_z
 _atom_site_occupancy
  Li  Li0  1  0.887011  0.860674  0.606819  1
  Li  Li1  1  0.887011  0.360674  0.893181  1
  Li  Li2  1  0.887407  0.161644  0.117502  1
  Li  Li3  1  0.887407  0.661644  0.382498  1
  Li  Li4  1  0.875882  0.620280  0.858343  1
  Li  Li5  1  0.875882  0.120280  0.641657  1
  Li  Li6  1  0.843808  0.888141  0.869536  1
  Li  Li7  1  0.843808  0.388141  0.630464  1
  Li  Li8  1  0.833952  0.608965  0.118278  1
  Li  Li9  1  0.833952  0.108965  0.381722  1
  Li  Li10  1  0.666048  0.108965  0.881722  1
  Li  Li11  1  0.666048  0.608965  0.618278  1
  Li  Li12  1  0.656192  0.388141  0.130464  1
  Li  Li13  1  0.656192  0.888141  0.369536  1
  Li  Li14  1  0.624118  0.120280  0.141657  1
  Li  Li15  1  0.624118  0.620280  0.358343  1
  Li  Li16  1  0.612593  0.161644  0.617502  1
  Li  Li17  1  0.612593  0.661644  0.882498  1
  Li  Li18  1  0.612989  0.860674  0.106819  1
  Li  Li19  1  0.612989  0.360674  0.393181  1
  Li  Li20  1  0.387011  0.639326  0.606819  1
  Li  Li21  1  0.387011  0.139326  0.893181  1
  Li  Li22  1  0.387407  0.338356  0.117502  1
  Li  Li23  1  0.387407  0.838356  0.382498  1
  Li  Li24  1  0.375882  0.379720  0.641657  1
  Li  Li25  1  0.375882  0.879720  0.858343  1
  Li  Li26  1  0.343808  0.111859  0.630464  1
  Li  Li27  1  0.343808  0.611859  0.869536  1
  Li  Li28  1  0.333952  0.891035  0.118278  1
  Li  Li29  1  0.333952  0.391035  0.381722  1
  Li  Li30  1  0.166048  0.891035  0.618278  1
  Li  Li31  1  0.166048  0.391035  0.881722  1
  Li  Li32  1  0.156192  0.611859  0.369536  1
  Li  Li33  1  0.156192  0.111859  0.130464  1
  Li  Li34  1  0.124118  0.379720  0.141657  1
  Li  Li35  1  0.124118  0.879720  0.358343  1
  Li  Li36  1  0.112593  0.338356  0.617502  1
  Li  Li37  1  0.112593  0.838356  0.882498  1
  Li  Li38  1  0.112989  0.639326  0.106819  1
  Li  Li39  1  0.112989  0.139326  0.393181  1
  Mn  Mn40  1  0.905295  0.881743  0.140372  1
  Mn  Mn41  1  0.905295  0.381743  0.359628  1
  Mn  Mn42  1  0.594705  0.881743  0.640372  1
  Mn  Mn43  1  0.594705  0.381743  0.859628  1
  Mn  Mn44  1  0.405295  0.618257  0.140372  1
  Mn  Mn45  1  0.405295  0.118257  0.359628  1
  Mn  Mn46  1  0.094705  0.618257  0.640372  1
  Mn  Mn47  1  0.094705  0.118257  0.859628  1
  O  O48  1  0.993801  0.519518  0.241212  1
  O  O49  1  0.993801  0.019518  0.258788  1
  O  O50  1  0.958278  0.748684  0.000374  1
  O  O51  1  0.958278  0.248684  0.499626  1
  O  O52  1  0.771518  0.003537  0.027624  1
  O  O53  1  0.771518  0.503537  0.472376  1
  O  O54  1  0.761214  0.760347  0.245742  1
  O  O55  1  0.761214  0.260347  0.254258  1
  O  O56  1  0.738786  0.760347  0.745742  1
  O  O57  1  0.738786  0.260347  0.754258  1
  O  O58  1  0.728482  0.003537  0.527624  1
  O  O59  1  0.728482  0.503537  0.972376  1
  O  O60  1  0.541722  0.748684  0.500374  1
  O  O61  1  0.541722  0.248684  0.999626  1
  O  O62  1  0.506199  0.519518  0.741212  1
  O  O63  1  0.506199  0.019518  0.758788  1
  O  O64  1  0.493801  0.980482  0.241212  1
  O  O65  1  0.493801  0.480482  0.258788  1
  O  O66  1  0.458278  0.751316  0.000374  1
  O  O67  1  0.458278  0.251316  0.499626  1
  O  O68  1  0.271518  0.496463  0.027624  1
  O  O69  1  0.271518  0.996463  0.472376  1
  O  O70  1  0.261214  0.739653  0.245742  1
  O  O71  1  0.261214  0.239653  0.254258  1
  O  O72  1  0.238786  0.739653  0.745742  1
  O  O73  1  0.238786  0.239653  0.754258  1
  O  O74  1  0.228482  0.496463  0.527624  1
  O  O75  1  0.228482  0.996463  0.972376  1
  O  O76  1  0.041722  0.251316  0.999626  1
  O  O77  1  0.041722  0.751316  0.500374  1
  O  O78  1  0.006199  0.980482  0.741212  1
  O  O79  1  0.006199  0.480482  0.758788  1
