# generated using pymatgen
data_Li2FeBO4
_symmetry_space_group_name_H-M   'P 1'
_cell_length_a   4.81881306
_cell_length_b   5.11862727
_cell_length_c   7.83387482
_cell_angle_alpha   90.00000000
_cell_angle_beta   127.71676277
_cell_angle_gamma   90.00000000
_symmetry_Int_Tables_number   1
_chemical_formula_structural   Li2FeBO4
_chemical_formula_sum   'Li4 Fe2 B2 O8'
_cell_volume   152.85201750
_cell_formula_units_Z   2
loop_
 _symmetry_equiv_pos_site_id
 _symmetry_equiv_pos_as_xyz
  1  'x, y, z'
loop_
 _atom_site_type_symbol
 _atom_site_label
 _atom_site_symmetry_multiplicity
 _atom_site_fract_x
 _atom_site_fract_y
 _atom_site_fract_z
 _atom_site_occupancy
  Li  Li0  1  0.257296  0.347495  0.751470  1
  Li  Li1  1  0.506880  0.186405  0.504272  1
  Li  Li2  1  0.257296  0.652505  0.251470  1
  Li  Li3  1  0.506880  0.813595  0.004272  1
  Fe  Fe4  1  0.998752  0.177555  0.998273  1
  Fe  Fe5  1  0.998752  0.822445  0.498273  1
  B  B6  1  0.747100  0.679284  0.751704  1
  B  B7  1  0.747100  0.320716  0.251704  1
  O  O8  1  0.045922  0.819635  0.950987  1
  O  O9  1  0.847942  0.399531  0.759830  1
  O  O10  1  0.430722  0.693449  0.744773  1
  O  O11  1  0.658622  0.807078  0.550402  1
  O  O12  1  0.045922  0.180365  0.450987  1
  O  O13  1  0.847942  0.600469  0.259830  1
  O  O14  1  0.430722  0.306551  0.244773  1
  O  O15  1  0.658622  0.192922  0.050402  1
