# generated using pymatgen
data_LuSiRu
_symmetry_space_group_name_H-M   'P 1'
_cell_length_a   4.26345686
_cell_length_b   6.85939057
_cell_length_c   7.10817423
_cell_angle_alpha   90.00000000
_cell_angle_beta   90.00000000
_cell_angle_gamma   90.00000000
_symmetry_Int_Tables_number   1
_chemical_formula_structural   LuSiRu
_chemical_formula_sum   'Lu4 Si4 Ru4'
_cell_volume   207.87653508
_cell_formula_units_Z   4
loop_
 _symmetry_equiv_pos_site_id
 _symmetry_equiv_pos_as_xyz
  1  'x, y, z'
loop_
 _atom_site_type_symbol
 _atom_site_label
 _atom_site_symmetry_multiplicity
 _atom_site_fract_x
 _atom_site_fract_y
 _atom_site_fract_z
 _atom_site_occupancy
  Lu  Lu0  1  0.250000  0.990471  0.811254  1
  Lu  Lu1  1  0.750000  0.509529  0.311254  1
  Lu  Lu2  1  0.250000  0.490471  0.688746  1
  Lu  Lu3  1  0.750000  0.009529  0.188746  1
  Si  Si4  1  0.250000  0.799502  0.393679  1
  Si  Si5  1  0.750000  0.700498  0.893679  1
  Si  Si6  1  0.250000  0.299502  0.106321  1
  Si  Si7  1  0.750000  0.200498  0.606321  1
  Ru  Ru8  1  0.750000  0.844413  0.565357  1
  Ru  Ru9  1  0.250000  0.655587  0.065357  1
  Ru  Ru10  1  0.750000  0.344413  0.934643  1
  Ru  Ru11  1  0.250000  0.155587  0.434643  1
