# generated using pymatgen
data_Li5Ti2Cu3O10
_symmetry_space_group_name_H-M   'P 1'
_cell_length_a   5.09967420
_cell_length_b   5.55360859
_cell_length_c   7.64847573
_cell_angle_alpha   103.22959821
_cell_angle_beta   103.31965059
_cell_angle_gamma   105.81998234
_symmetry_Int_Tables_number   1
_chemical_formula_structural   Li5Ti2Cu3O10
_chemical_formula_sum   'Li5 Ti2 Cu3 O10'
_cell_volume   192.71407252
_cell_formula_units_Z   1
loop_
 _symmetry_equiv_pos_site_id
 _symmetry_equiv_pos_as_xyz
  1  'x, y, z'
loop_
 _atom_site_type_symbol
 _atom_site_label
 _atom_site_symmetry_multiplicity
 _atom_site_fract_x
 _atom_site_fract_y
 _atom_site_fract_z
 _atom_site_occupancy
  Li  Li0  1  0.208969  0.887249  0.384280  1
  Li  Li1  1  0.406543  0.306475  0.798384  1
  Li  Li2  1  0.500000  0.500000  0.500000  1
  Li  Li3  1  0.593457  0.693525  0.201616  1
  Li  Li4  1  0.791031  0.112751  0.615720  1
  Ti  Ti5  1  0.095647  0.695487  0.694039  1
  Ti  Ti6  1  0.904353  0.304513  0.305961  1
  Cu  Cu7  1  0.000000  0.500000  0.000000  1
  Cu  Cu8  1  0.697760  0.888306  0.900223  1
  Cu  Cu9  1  0.302240  0.111694  0.099777  1
  O  O10  1  0.058368  0.032233  0.840859  1
  O  O11  1  0.352968  0.674529  0.932657  1
  O  O12  1  0.128613  0.328889  0.545130  1
  O  O13  1  0.216398  0.526312  0.245239  1
  O  O14  1  0.457482  0.878510  0.665607  1
  O  O15  1  0.542518  0.121490  0.334393  1
  O  O16  1  0.783602  0.473688  0.754761  1
  O  O17  1  0.871387  0.671111  0.454870  1
  O  O18  1  0.647032  0.325471  0.067343  1
  O  O19  1  0.941632  0.967767  0.159141  1
