# generated using pymatgen
data_Li2MnF5
_symmetry_space_group_name_H-M   'P 1'
_cell_length_a   6.56444623
_cell_length_b   7.66188286
_cell_length_c   8.12597459
_cell_angle_alpha   90.00000000
_cell_angle_beta   90.00000000
_cell_angle_gamma   90.00000000
_symmetry_Int_Tables_number   1
_chemical_formula_structural   Li2MnF5
_chemical_formula_sum   'Li8 Mn4 F20'
_cell_volume   408.70416469
_cell_formula_units_Z   4
loop_
 _symmetry_equiv_pos_site_id
 _symmetry_equiv_pos_as_xyz
  1  'x, y, z'
loop_
 _atom_site_type_symbol
 _atom_site_label
 _atom_site_symmetry_multiplicity
 _atom_site_fract_x
 _atom_site_fract_y
 _atom_site_fract_z
 _atom_site_occupancy
  Li  Li0  1  0.023018  0.768137  0.919288  1
  Li  Li1  1  0.023018  0.768137  0.580712  1
  Li  Li2  1  0.476982  0.268137  0.419288  1
  Li  Li3  1  0.476982  0.268137  0.080712  1
  Li  Li4  1  0.523018  0.731863  0.919288  1
  Li  Li5  1  0.523018  0.731863  0.580712  1
  Li  Li6  1  0.976982  0.231863  0.419288  1
  Li  Li7  1  0.976982  0.231863  0.080712  1
  Mn  Mn8  1  0.235177  0.393335  0.750000  1
  Mn  Mn9  1  0.264823  0.893335  0.250000  1
  Mn  Mn10  1  0.735177  0.106665  0.750000  1
  Mn  Mn11  1  0.764823  0.606665  0.250000  1
  F  F12  1  0.025535  0.063541  0.250000  1
  F  F13  1  0.081860  0.599855  0.750000  1
  F  F14  1  0.077343  0.710141  0.250000  1
  F  F15  1  0.218316  0.352614  0.984412  1
  F  F16  1  0.218316  0.352614  0.515588  1
  F  F17  1  0.281684  0.852614  0.484412  1
  F  F18  1  0.281684  0.852614  0.015588  1
  F  F19  1  0.422657  0.210141  0.750000  1
  F  F20  1  0.418140  0.099855  0.250000  1
  F  F21  1  0.474465  0.563541  0.750000  1
  F  F22  1  0.525535  0.436459  0.250000  1
  F  F23  1  0.581860  0.900145  0.750000  1
  F  F24  1  0.577343  0.789859  0.250000  1
  F  F25  1  0.718316  0.147386  0.515588  1
  F  F26  1  0.718316  0.147386  0.984412  1
  F  F27  1  0.781684  0.647386  0.015588  1
  F  F28  1  0.781684  0.647386  0.484412  1
  F  F29  1  0.922657  0.289859  0.750000  1
  F  F30  1  0.918140  0.400145  0.250000  1
  F  F31  1  0.974465  0.936459  0.750000  1
