# generated using pymatgen
data_LiCrB2O5
_symmetry_space_group_name_H-M   'P 1'
_cell_length_a   5.40538635
_cell_length_b   10.67555494
_cell_length_c   12.03099870
_cell_angle_alpha   90.00000000
_cell_angle_beta   100.46367615
_cell_angle_gamma   90.00000000
_symmetry_Int_Tables_number   1
_chemical_formula_structural   LiCrB2O5
_chemical_formula_sum   'Li8 Cr8 B16 O40'
_cell_volume   682.70949461
_cell_formula_units_Z   8
loop_
 _symmetry_equiv_pos_site_id
 _symmetry_equiv_pos_as_xyz
  1  'x, y, z'
loop_
 _atom_site_type_symbol
 _atom_site_label
 _atom_site_symmetry_multiplicity
 _atom_site_fract_x
 _atom_site_fract_y
 _atom_site_fract_z
 _atom_site_occupancy
  Li  Li0  1  0.380209  0.631020  0.937022  1
  Li  Li1  1  0.880209  0.868980  0.937022  1
  Li  Li2  1  0.118648  0.120151  0.561995  1
  Li  Li3  1  0.618648  0.379849  0.561995  1
  Li  Li4  1  0.381352  0.620151  0.438005  1
  Li  Li5  1  0.881352  0.879849  0.438005  1
  Li  Li6  1  0.119791  0.131020  0.062978  1
  Li  Li7  1  0.619791  0.368980  0.062978  1
  Cr  Cr8  1  0.269506  0.376537  0.761486  1
  Cr  Cr9  1  0.254697  0.875740  0.741053  1
  Cr  Cr10  1  0.769506  0.123463  0.761486  1
  Cr  Cr11  1  0.754697  0.624260  0.741053  1
  Cr  Cr12  1  0.245303  0.375740  0.258947  1
  Cr  Cr13  1  0.230494  0.876537  0.238514  1
  Cr  Cr14  1  0.745303  0.124260  0.258947  1
  Cr  Cr15  1  0.730494  0.623463  0.238514  1
  B  B16  1  0.145466  0.370860  0.994513  1
  B  B17  1  0.645466  0.129140  0.994513  1
  B  B18  1  0.305917  0.119816  0.833656  1
  B  B19  1  0.805917  0.380184  0.833656  1
  B  B20  1  0.205752  0.628832  0.665741  1
  B  B21  1  0.705752  0.871168  0.665741  1
  B  B22  1  0.157490  0.386736  0.490983  1
  B  B23  1  0.342510  0.886736  0.509017  1
  B  B24  1  0.657490  0.113264  0.490983  1
  B  B25  1  0.842510  0.613264  0.509017  1
  B  B26  1  0.294248  0.128832  0.334259  1
  B  B27  1  0.794248  0.371168  0.334259  1
  B  B28  1  0.194083  0.619816  0.166344  1
  B  B29  1  0.694083  0.880184  0.166344  1
  B  B30  1  0.354534  0.870860  0.005487  1
  B  B31  1  0.854534  0.629140  0.005487  1
  O  O32  1  0.321416  0.395162  0.929027  1
  O  O33  1  0.383530  0.109701  0.949544  1
  O  O34  1  0.286083  0.822691  0.900295  1
  O  O35  1  0.821416  0.104838  0.929027  1
  O  O36  1  0.883530  0.390299  0.949544  1
  O  O37  1  0.786083  0.677309  0.900295  1
  O  O38  1  0.116345  0.044833  0.776960  1
  O  O39  1  0.112559  0.554045  0.744168  1
  O  O40  1  0.429980  0.201458  0.772803  1
  O  O41  1  0.616345  0.455167  0.776960  1
  O  O42  1  0.406104  0.707024  0.705175  1
  O  O43  1  0.612559  0.945955  0.744168  1
  O  O44  1  0.929980  0.298542  0.772803  1
  O  O45  1  0.906104  0.792976  0.705175  1
  O  O46  1  0.256705  0.353027  0.597811  1
  O  O47  1  0.106603  0.628620  0.550226  1
  O  O48  1  0.187491  0.927028  0.580019  1
  O  O49  1  0.756705  0.146973  0.597811  1
  O  O50  1  0.606603  0.871380  0.550226  1
  O  O51  1  0.687491  0.572972  0.580019  1
  O  O52  1  0.312509  0.427028  0.419981  1
  O  O53  1  0.393397  0.128620  0.449774  1
  O  O54  1  0.243295  0.853027  0.402189  1
  O  O55  1  0.812509  0.072972  0.419981  1
  O  O56  1  0.893397  0.371380  0.449774  1
  O  O57  1  0.743295  0.646973  0.402189  1
  O  O58  1  0.093896  0.207024  0.294825  1
  O  O59  1  0.070020  0.701458  0.227197  1
  O  O60  1  0.387441  0.054045  0.255832  1
  O  O61  1  0.593896  0.292976  0.294825  1
  O  O62  1  0.383655  0.544833  0.223040  1
  O  O63  1  0.570020  0.798542  0.227197  1
  O  O64  1  0.887441  0.445955  0.255832  1
  O  O65  1  0.883655  0.955167  0.223040  1
  O  O66  1  0.213917  0.322691  0.099705  1
  O  O67  1  0.116470  0.609701  0.050456  1
  O  O68  1  0.178584  0.895162  0.070973  1
  O  O69  1  0.713917  0.177309  0.099705  1
  O  O70  1  0.616470  0.890299  0.050456  1
  O  O71  1  0.678584  0.604838  0.070973  1
