# generated using pymatgen
data_Na2ScPCO7
_symmetry_space_group_name_H-M   'P 1'
_cell_length_a   5.30517116
_cell_length_b   6.74777010
_cell_length_c   9.05971497
_cell_angle_alpha   90.00000000
_cell_angle_beta   90.41340423
_cell_angle_gamma   90.00000000
_symmetry_Int_Tables_number   1
_chemical_formula_structural   Na2ScPCO7
_chemical_formula_sum   'Na4 Sc2 P2 C2 O14'
_cell_volume   324.31191691
_cell_formula_units_Z   2
loop_
 _symmetry_equiv_pos_site_id
 _symmetry_equiv_pos_as_xyz
  1  'x, y, z'
loop_
 _atom_site_type_symbol
 _atom_site_label
 _atom_site_symmetry_multiplicity
 _atom_site_fract_x
 _atom_site_fract_y
 _atom_site_fract_z
 _atom_site_occupancy
  Na  Na0  1  0.235637  0.499393  0.222287  1
  Na  Na1  1  0.235637  0.000607  0.222287  1
  Na  Na2  1  0.764363  0.500607  0.777713  1
  Na  Na3  1  0.764363  0.999393  0.777713  1
  Sc  Sc4  1  0.782835  0.750000  0.357309  1
  Sc  Sc5  1  0.217165  0.250000  0.642691  1
  P  P6  1  0.709296  0.250000  0.424325  1
  P  P7  1  0.290704  0.750000  0.575675  1
  C  C8  1  0.731396  0.750000  0.073376  1
  C  C9  1  0.268604  0.250000  0.926624  1
  O  O10  1  0.299217  0.250000  0.064651  1
  O  O11  1  0.952967  0.750000  0.138286  1
  O  O12  1  0.540247  0.750000  0.167008  1
  O  O13  1  0.791487  0.061923  0.340663  1
  O  O14  1  0.791487  0.438077  0.340663  1
  O  O15  1  0.168441  0.750000  0.417602  1
  O  O16  1  0.415885  0.250000  0.442587  1
  O  O17  1  0.584115  0.750000  0.557413  1
  O  O18  1  0.831559  0.250000  0.582398  1
  O  O19  1  0.208513  0.561923  0.659337  1
  O  O20  1  0.208513  0.938077  0.659337  1
  O  O21  1  0.459753  0.250000  0.832992  1
  O  O22  1  0.047033  0.250000  0.861714  1
  O  O23  1  0.700783  0.750000  0.935349  1
