# generated using pymatgen
data_Ti11O18
_symmetry_space_group_name_H-M   'P 1'
_cell_length_a   5.52417654
_cell_length_b   7.50849095
_cell_length_c   8.79830884
_cell_angle_alpha   113.05979901
_cell_angle_beta   105.40925328
_cell_angle_gamma   96.34025774
_symmetry_Int_Tables_number   1
_chemical_formula_structural   Ti11O18
_chemical_formula_sum   'Ti11 O18'
_cell_volume   314.09982898
_cell_formula_units_Z   1
loop_
 _symmetry_equiv_pos_site_id
 _symmetry_equiv_pos_as_xyz
  1  'x, y, z'
loop_
 _atom_site_type_symbol
 _atom_site_label
 _atom_site_symmetry_multiplicity
 _atom_site_fract_x
 _atom_site_fract_y
 _atom_site_fract_z
 _atom_site_occupancy
  Ti  Ti0  1  0.695232  0.653128  0.997812  1
  Ti  Ti1  1  0.321853  0.861197  0.000832  1
  Ti  Ti2  1  0.638871  0.179236  0.682397  1
  Ti  Ti3  1  0.025343  0.485797  0.666843  1
  Ti  Ti4  1  0.314526  0.337115  0.003931  1
  Ti  Ti5  1  0.967907  0.011214  0.326326  1
  Ti  Ti6  1  0.364823  0.320886  0.337028  1
  Ti  Ti7  1  0.643528  0.688679  0.670687  1
  Ti  Ti8  1  0.024842  0.982538  0.663896  1
  Ti  Ti9  1  0.365293  0.817050  0.332478  1
  Ti  Ti10  1  0.963256  0.497987  0.316662  1
  O  O11  1  0.394457  0.649961  0.791253  1
  O  O12  1  0.942707  0.688849  0.876180  1
  O  O13  1  0.592413  0.364525  0.890470  1
  O  O14  1  0.060663  0.310862  0.436676  1
  O  O15  1  0.715977  0.967919  0.748839  1
  O  O16  1  0.043737  0.289864  0.773161  1
  O  O17  1  0.628596  0.374259  0.566108  1
  O  O18  1  0.269647  0.039039  0.891661  1
  O  O19  1  0.271008  0.020886  0.539742  1
  O  O20  1  0.731099  0.981123  0.457618  1
  O  O21  1  0.698678  0.947539  0.113618  1
  O  O22  1  0.371845  0.625072  0.441090  1
  O  O23  1  0.962502  0.708732  0.229162  1
  O  O24  1  0.270652  0.019228  0.229916  1
  O  O25  1  0.937999  0.684379  0.559872  1
  O  O26  1  0.398405  0.640866  0.102912  1
  O  O27  1  0.092642  0.332120  0.135014  1
  O  O28  1  0.600508  0.365448  0.217818  1
