# generated using pymatgen
data_Li4Fe3Ni5O16
_symmetry_space_group_name_H-M   'P 1'
_cell_length_a   5.74100771
_cell_length_b   5.74100771
_cell_length_c   9.49680279
_cell_angle_alpha   89.89903092
_cell_angle_beta   90.10096908
_cell_angle_gamma   119.86214384
_symmetry_Int_Tables_number   1
_chemical_formula_structural   Li4Fe3Ni5O16
_chemical_formula_sum   'Li4 Fe3 Ni5 O16'
_cell_volume   271.44698862
_cell_formula_units_Z   1
loop_
 _symmetry_equiv_pos_site_id
 _symmetry_equiv_pos_as_xyz
  1  'x, y, z'
loop_
 _atom_site_type_symbol
 _atom_site_label
 _atom_site_symmetry_multiplicity
 _atom_site_fract_x
 _atom_site_fract_y
 _atom_site_fract_z
 _atom_site_occupancy
  Li  Li0  1  0.329679  0.670321  0.112018  1
  Li  Li1  1  0.001672  0.998328  0.003871  1
  Li  Li2  1  0.003853  0.996147  0.500571  1
  Li  Li3  1  0.666467  0.333533  0.608041  1
  Fe  Fe4  1  0.168227  0.338476  0.785592  1
  Fe  Fe5  1  0.661524  0.831773  0.785592  1
  Fe  Fe6  1  0.831295  0.168705  0.283923  1
  Ni  Ni7  1  0.334824  0.665176  0.505712  1
  Ni  Ni8  1  0.169790  0.830210  0.786277  1
  Ni  Ni9  1  0.664252  0.335748  0.011885  1
  Ni  Ni10  1  0.338545  0.169068  0.284697  1
  Ni  Ni11  1  0.830932  0.661455  0.284697  1
  O  O12  1  0.159313  0.315384  0.392191  1
  O  O13  1  0.483807  0.516193  0.666488  1
  O  O14  1  0.324723  0.675277  0.900919  1
  O  O15  1  0.010989  0.989011  0.684826  1
  O  O16  1  0.003419  0.996581  0.191457  1
  O  O17  1  0.684616  0.840687  0.392191  1
  O  O18  1  0.035718  0.522049  0.666616  1
  O  O19  1  0.477951  0.964282  0.666616  1
  O  O20  1  0.838191  0.161809  0.895657  1
  O  O21  1  0.159150  0.840850  0.391989  1
  O  O22  1  0.515034  0.036918  0.170190  1
  O  O23  1  0.963082  0.484966  0.170190  1
  O  O24  1  0.664189  0.335811  0.387087  1
  O  O25  1  0.316592  0.154654  0.895919  1
  O  O26  1  0.516443  0.483557  0.171024  1
  O  O27  1  0.845346  0.683408  0.895919  1
