# generated using pymatgen
data_Li2P4WO13
_symmetry_space_group_name_H-M   'P 1'
_cell_length_a   5.18531636
_cell_length_b   8.05876464
_cell_length_c   13.67821633
_cell_angle_alpha   78.07331371
_cell_angle_beta   83.93490991
_cell_angle_gamma   79.99530165
_symmetry_Int_Tables_number   1
_chemical_formula_structural   Li2P4WO13
_chemical_formula_sum   'Li4 P8 W2 O26'
_cell_volume   549.28714863
_cell_formula_units_Z   2
loop_
 _symmetry_equiv_pos_site_id
 _symmetry_equiv_pos_as_xyz
  1  'x, y, z'
loop_
 _atom_site_type_symbol
 _atom_site_label
 _atom_site_symmetry_multiplicity
 _atom_site_fract_x
 _atom_site_fract_y
 _atom_site_fract_z
 _atom_site_occupancy
  Li  Li0  1  0.376612  0.328643  0.982226  1
  Li  Li1  1  0.069439  0.317222  0.510589  1
  Li  Li2  1  0.930561  0.682778  0.489411  1
  Li  Li3  1  0.623388  0.671357  0.017774  1
  P  P4  1  0.119217  0.795299  0.133844  1
  P  P5  1  0.009806  0.903621  0.643933  1
  P  P6  1  0.335880  0.571829  0.319415  1
  P  P7  1  0.306039  0.661887  0.800981  1
  P  P8  1  0.693961  0.338113  0.199019  1
  P  P9  1  0.664120  0.428171  0.680585  1
  P  P10  1  0.990194  0.096379  0.356067  1
  P  P11  1  0.880783  0.204701  0.866156  1
  W  W12  1  0.444995  0.053247  0.758928  1
  W  W13  1  0.555005  0.946753  0.241072  1
  O  O14  1  0.129631  0.646242  0.237398  1
  O  O15  1  0.244119  0.714923  0.048095  1
  O  O16  1  0.288893  0.031888  0.345482  1
  O  O17  1  0.162617  0.044542  0.658188  1
  O  O18  1  0.193678  0.524045  0.419024  1
  O  O19  1  0.049265  0.751210  0.746575  1
  O  O20  1  0.089755  0.820930  0.555666  1
  O  O21  1  0.182467  0.143656  0.869376  1
  O  O22  1  0.249979  0.941047  0.153683  1
  O  O23  1  0.564952  0.198036  0.169673  1
  O  O24  1  0.494590  0.399581  0.288777  1
  O  O25  1  0.249500  0.519518  0.883088  1
  O  O26  1  0.468729  0.302596  0.687023  1
  O  O27  1  0.531271  0.697404  0.312977  1
  O  O28  1  0.750500  0.480482  0.116912  1
  O  O29  1  0.505410  0.600419  0.711223  1
  O  O30  1  0.435048  0.801964  0.830327  1
  O  O31  1  0.750021  0.058953  0.846317  1
  O  O32  1  0.817533  0.856344  0.130624  1
  O  O33  1  0.910245  0.179070  0.444334  1
  O  O34  1  0.950735  0.248790  0.253425  1
  O  O35  1  0.806322  0.475955  0.580976  1
  O  O36  1  0.837383  0.955458  0.341812  1
  O  O37  1  0.711107  0.968112  0.654518  1
  O  O38  1  0.755881  0.285077  0.951905  1
  O  O39  1  0.870369  0.353758  0.762602  1
