# generated using pymatgen
data_CoH16C3N8O7
_symmetry_space_group_name_H-M   'P 1'
_cell_length_a   8.24638693
_cell_length_b   8.24638693
_cell_length_c   10.37821699
_cell_angle_alpha   67.63107957
_cell_angle_beta   112.36892043
_cell_angle_gamma   96.37720157
_symmetry_Int_Tables_number   1
_chemical_formula_structural   CoH16C3N8O7
_chemical_formula_sum   'Co2 H32 C6 N16 O14'
_cell_volume   603.06291784
_cell_formula_units_Z   2
loop_
 _symmetry_equiv_pos_site_id
 _symmetry_equiv_pos_as_xyz
  1  'x, y, z'
loop_
 _atom_site_type_symbol
 _atom_site_label
 _atom_site_symmetry_multiplicity
 _atom_site_fract_x
 _atom_site_fract_y
 _atom_site_fract_z
 _atom_site_occupancy
  Co  Co0  1  0.922774  0.927036  0.994250  1
  Co  Co1  1  0.072964  0.077226  0.494250  1
  H  H2  1  0.621673  0.014624  0.997987  1
  H  H3  1  0.985376  0.378327  0.497987  1
  H  H4  1  0.774317  0.096603  0.111354  1
  H  H5  1  0.903397  0.225683  0.611354  1
  H  H6  1  0.644266  0.345410  0.890585  1
  H  H7  1  0.654590  0.355734  0.390585  1
  H  H8  1  0.141054  0.140435  0.106747  1
  H  H9  1  0.859565  0.858946  0.606747  1
  H  H10  1  0.148134  0.957298  0.255312  1
  H  H11  1  0.042702  0.851866  0.755312  1
  H  H12  1  0.411436  0.015101  0.174799  1
  H  H13  1  0.984899  0.588564  0.674799  1
  H  H14  1  0.032442  0.605592  0.220983  1
  H  H15  1  0.394408  0.967558  0.720983  1
  H  H16  1  0.859861  0.677300  0.234337  1
  H  H17  1  0.322700  0.140139  0.734337  1
  H  H18  1  0.753846  0.461706  0.129209  1
  H  H19  1  0.538294  0.246154  0.629209  1
  H  H20  1  0.319043  0.469228  0.924333  1
  H  H21  1  0.530772  0.680957  0.424333  1
  H  H22  1  0.421739  0.386654  0.108392  1
  H  H23  1  0.613346  0.578261  0.608392  1
  H  H24  1  0.358027  0.606860  0.020678  1
  H  H25  1  0.393140  0.641973  0.520678  1
  H  H26  1  0.070727  0.528267  0.974075  1
  H  H27  1  0.471733  0.929273  0.474075  1
  H  H28  1  0.178323  0.406725  0.149987  1
  H  H29  1  0.593275  0.821677  0.649987  1
  H  H30  1  0.143644  0.250477  0.821595  1
  H  H31  1  0.749523  0.856356  0.321595  1
  H  H32  1  0.227288  0.394494  0.716429  1
  H  H33  1  0.605506  0.772712  0.216429  1
  C  C34  1  0.816527  0.291402  0.809508  1
  C  C35  1  0.708598  0.183473  0.309508  1
  C  C36  1  0.284600  0.865293  0.047920  1
  C  C37  1  0.134707  0.715400  0.547920  1
  C  C38  1  0.687813  0.663481  0.925981  1
  C  C39  1  0.336519  0.312187  0.425981  1
  N  N40  1  0.737632  0.079536  0.010670  1
  N  N41  1  0.920464  0.262368  0.510670  1
  N  N42  1  0.710446  0.245011  0.891991  1
  N  N43  1  0.754989  0.289554  0.391991  1
  N  N44  1  0.145351  0.004971  0.146991  1
  N  N45  1  0.995029  0.854649  0.646991  1
  N  N46  1  0.300873  0.943528  0.148351  1
  N  N47  1  0.056472  0.699127  0.648351  1
  N  N48  1  0.911765  0.670128  0.159828  1
  N  N49  1  0.329872  0.088235  0.659828  1
  N  N50  1  0.800324  0.575287  0.073219  1
  N  N51  1  0.424713  0.199676  0.573219  1
  N  N52  1  0.323498  0.480158  0.021720  1
  N  N53  1  0.519842  0.676502  0.521720  1
  N  N54  1  0.159265  0.424443  0.041318  1
  N  N55  1  0.575557  0.840735  0.541318  1
  O  O56  1  0.921734  0.173528  0.826151  1
  O  O57  1  0.826472  0.078266  0.326151  1
  O  O58  1  0.798724  0.447652  0.714290  1
  O  O59  1  0.552348  0.201276  0.214290  1
  O  O60  1  0.130987  0.832535  0.969083  1
  O  O61  1  0.167465  0.869013  0.469083  1
  O  O62  1  0.426579  0.822857  0.043081  1
  O  O63  1  0.177143  0.573421  0.543081  1
  O  O64  1  0.715334  0.826552  0.860791  1
  O  O65  1  0.173448  0.284666  0.360791  1
  O  O66  1  0.570351  0.575906  0.864829  1
  O  O67  1  0.424094  0.429649  0.364829  1
  O  O68  1  0.257558  0.291720  0.812855  1
  O  O69  1  0.708280  0.742442  0.312855  1
