# generated using pymatgen
data_Dy2Sb2O7
_symmetry_space_group_name_H-M   'P 1'
_cell_length_a   7.53421869
_cell_length_b   7.53421869
_cell_length_c   18.54538004
_cell_angle_alpha   90.00000000
_cell_angle_beta   90.00000000
_cell_angle_gamma   120.00000000
_symmetry_Int_Tables_number   1
_chemical_formula_structural   Dy2Sb2O7
_chemical_formula_sum   'Dy12 Sb12 O42'
_cell_volume   911.68081064
_cell_formula_units_Z   6
loop_
 _symmetry_equiv_pos_site_id
 _symmetry_equiv_pos_as_xyz
  1  'x, y, z'
loop_
 _atom_site_type_symbol
 _atom_site_label
 _atom_site_symmetry_multiplicity
 _atom_site_fract_x
 _atom_site_fract_y
 _atom_site_fract_z
 _atom_site_occupancy
  Dy  Dy0  1  0.000000  0.823055  0.666667  1
  Dy  Dy1  1  0.000000  0.834045  0.166667  1
  Dy  Dy2  1  0.183238  0.683611  0.011394  1
  Dy  Dy3  1  0.176945  0.176945  0.000000  1
  Dy  Dy4  1  0.500372  0.816762  0.678061  1
  Dy  Dy5  1  0.165955  0.165955  0.500000  1
  Dy  Dy6  1  0.316389  0.499628  0.344727  1
  Dy  Dy7  1  0.499628  0.316389  0.655273  1
  Dy  Dy8  1  0.683611  0.183238  0.988606  1
  Dy  Dy9  1  0.816762  0.500372  0.321939  1
  Dy  Dy10  1  0.834045  0.000000  0.833333  1
  Dy  Dy11  1  0.823055  0.000000  0.333333  1
  Sb  Sb12  1  0.000000  0.325592  0.166667  1
  Sb  Sb13  1  0.000000  0.298669  0.666667  1
  Sb  Sb14  1  0.167015  0.669151  0.500968  1
  Sb  Sb15  1  0.502136  0.832985  0.167635  1
  Sb  Sb16  1  0.330849  0.497864  0.834302  1
  Sb  Sb17  1  0.298669  0.000000  0.333333  1
  Sb  Sb18  1  0.674408  0.674408  0.500000  1
  Sb  Sb19  1  0.325592  0.000000  0.833333  1
  Sb  Sb20  1  0.701331  0.701331  0.000000  1
  Sb  Sb21  1  0.497864  0.330849  0.165698  1
  Sb  Sb22  1  0.669151  0.167015  0.499032  1
  Sb  Sb23  1  0.832985  0.502136  0.832365  1
  O  O24  1  0.016447  0.850952  0.284889  1
  O  O25  1  0.990643  0.801100  0.804821  1
  O  O26  1  0.106336  0.656142  0.394092  1
  O  O27  1  0.050837  0.437777  0.805548  1
  O  O28  1  0.328852  0.994095  0.955753  1
  O  O29  1  0.231688  0.697353  0.605978  1
  O  O30  1  0.005905  0.334757  0.289086  1
  O  O31  1  0.202272  0.680852  0.140089  1
  O  O32  1  0.386940  0.949163  0.472214  1
  O  O33  1  0.465665  0.768312  0.272644  1
  O  O34  1  0.478580  0.797728  0.806756  1
  O  O35  1  0.343858  0.450194  0.727426  1
  O  O36  1  0.149048  0.165495  0.618222  1
  O  O37  1  0.319148  0.521420  0.473423  1
  O  O38  1  0.198900  0.189543  0.138154  1
  O  O39  1  0.165495  0.149048  0.381778  1
  O  O40  1  0.302647  0.534335  0.939311  1
  O  O41  1  0.189543  0.198900  0.861846  1
  O  O42  1  0.549806  0.893664  0.060759  1
  O  O43  1  0.562223  0.613060  0.138881  1
  O  O44  1  0.810457  0.009357  0.471488  1
  O  O45  1  0.665243  0.671148  0.622419  1
  O  O46  1  0.450194  0.343858  0.272574  1
  O  O47  1  0.613060  0.562223  0.861119  1
  O  O48  1  0.334757  0.005905  0.710914  1
  O  O49  1  0.834505  0.983553  0.951556  1
  O  O50  1  0.534335  0.302647  0.060689  1
  O  O51  1  0.671148  0.665243  0.377581  1
  O  O52  1  0.521420  0.319148  0.526577  1
  O  O53  1  0.437777  0.050837  0.194452  1
  O  O54  1  0.697353  0.231688  0.394022  1
  O  O55  1  0.680852  0.202272  0.859911  1
  O  O56  1  0.893664  0.549806  0.939241  1
  O  O57  1  0.983553  0.834505  0.048444  1
  O  O58  1  0.797728  0.478580  0.193244  1
  O  O59  1  0.009357  0.810457  0.528512  1
  O  O60  1  0.768312  0.465665  0.727356  1
  O  O61  1  0.656142  0.106336  0.605908  1
  O  O62  1  0.949163  0.386940  0.527786  1
  O  O63  1  0.801100  0.990643  0.195179  1
  O  O64  1  0.994095  0.328852  0.044247  1
  O  O65  1  0.850952  0.016447  0.715111  1
