# generated using pymatgen
data_Li3MnV(PO4)3
_symmetry_space_group_name_H-M   'P 1'
_cell_length_a   8.68524889
_cell_length_b   8.68524889
_cell_length_c   8.79068950
_cell_angle_alpha   61.14780669
_cell_angle_beta   118.85219331
_cell_angle_gamma   120.40297182
_symmetry_Int_Tables_number   1
_chemical_formula_structural   Li3MnV(PO4)3
_chemical_formula_sum   'Li6 Mn2 V2 P6 O24'
_cell_volume   475.34567407
_cell_formula_units_Z   2
loop_
 _symmetry_equiv_pos_site_id
 _symmetry_equiv_pos_as_xyz
  1  'x, y, z'
loop_
 _atom_site_type_symbol
 _atom_site_label
 _atom_site_symmetry_multiplicity
 _atom_site_fract_x
 _atom_site_fract_y
 _atom_site_fract_z
 _atom_site_occupancy
  Li  Li0  1  0.890487  0.260893  0.293314  1
  Li  Li1  1  0.348145  0.963780  0.323065  1
  Li  Li2  1  0.739107  0.109513  0.793314  1
  Li  Li3  1  0.362470  0.375752  0.254471  1
  Li  Li4  1  0.624248  0.637530  0.754471  1
  Li  Li5  1  0.036220  0.651855  0.823065  1
  Mn  Mn6  1  0.852010  0.641102  0.144106  1
  Mn  Mn7  1  0.358898  0.147990  0.644106  1
  V  V8  1  0.642590  0.847547  0.359405  1
  V  V9  1  0.152453  0.357410  0.859405  1
  P  P10  1  0.530733  0.251493  0.045709  1
  P  P11  1  0.748507  0.469267  0.545709  1
  P  P12  1  0.954405  0.956772  0.741923  1
  P  P13  1  0.249500  0.525824  0.461129  1
  P  P14  1  0.043228  0.045595  0.241923  1
  P  P15  1  0.474176  0.750500  0.961129  1
  O  O16  1  0.730931  0.407876  0.087083  1
  O  O17  1  0.379154  0.287173  0.057020  1
  O  O18  1  0.747567  0.510465  0.357743  1
  O  O19  1  0.712827  0.620846  0.557020  1
  O  O20  1  0.549752  0.069241  0.206229  1
  O  O21  1  0.926744  0.759830  0.890060  1
  O  O22  1  0.930759  0.450248  0.706229  1
  O  O23  1  0.005821  0.879148  0.190727  1
  O  O24  1  0.888972  0.015044  0.305038  1
  O  O25  1  0.592124  0.269069  0.587083  1
  O  O26  1  0.240170  0.073256  0.390060  1
  O  O27  1  0.520773  0.738108  0.158294  1
  O  O28  1  0.489535  0.252433  0.857743  1
  O  O29  1  0.769850  0.947159  0.576719  1
  O  O30  1  0.397650  0.727825  0.415258  1
  O  O31  1  0.120852  0.994179  0.690727  1
  O  O32  1  0.984956  0.111028  0.805038  1
  O  O33  1  0.054272  0.519464  0.319733  1
  O  O34  1  0.052841  0.230150  0.076719  1
  O  O35  1  0.480536  0.945728  0.819733  1
  O  O36  1  0.294512  0.380824  0.448516  1
  O  O37  1  0.261892  0.479227  0.658294  1
  O  O38  1  0.619176  0.705488  0.948516  1
  O  O39  1  0.272175  0.602350  0.915258  1
