# generated using pymatgen
data_LiNi(PO3)3
_symmetry_space_group_name_H-M   'P 1'
_cell_length_a   6.79298027
_cell_length_b   7.10640699
_cell_length_c   7.23101155
_cell_angle_alpha   83.80993073
_cell_angle_beta   78.40172768
_cell_angle_gamma   83.59841120
_symmetry_Int_Tables_number   1
_chemical_formula_structural   LiNi(PO3)3
_chemical_formula_sum   'Li2 Ni2 P6 O18'
_cell_volume   338.49755149
_cell_formula_units_Z   2
loop_
 _symmetry_equiv_pos_site_id
 _symmetry_equiv_pos_as_xyz
  1  'x, y, z'
loop_
 _atom_site_type_symbol
 _atom_site_label
 _atom_site_symmetry_multiplicity
 _atom_site_fract_x
 _atom_site_fract_y
 _atom_site_fract_z
 _atom_site_occupancy
  Li  Li0  1  0.914183  0.724204  0.870915  1
  Li  Li1  1  0.085817  0.275796  0.129085  1
  Ni  Ni2  1  0.438606  0.837685  0.852293  1
  Ni  Ni3  1  0.561394  0.162315  0.147707  1
  P  P4  1  0.763797  0.849906  0.453251  1
  P  P5  1  0.143489  0.706417  0.221185  1
  P  P6  1  0.575566  0.620373  0.220823  1
  P  P7  1  0.424434  0.379627  0.779177  1
  P  P8  1  0.856511  0.293583  0.778815  1
  P  P9  1  0.236203  0.150094  0.546749  1
  O  O10  1  0.281092  0.970727  0.665244  1
  O  O11  1  0.710905  0.845810  0.666433  1
  O  O12  1  0.188543  0.865640  0.066554  1
  O  O13  1  0.622702  0.767582  0.051905  1
  O  O14  1  0.002521  0.789818  0.408624  1
  O  O15  1  0.668054  0.673054  0.392924  1
  O  O16  1  0.340474  0.645208  0.313924  1
  O  O17  1  0.361678  0.583342  0.810929  1
  O  O18  1  0.944938  0.461759  0.823716  1
  O  O19  1  0.055062  0.538241  0.176284  1
  O  O20  1  0.638322  0.416658  0.189071  1
  O  O21  1  0.659526  0.354792  0.686076  1
  O  O22  1  0.331946  0.326946  0.607076  1
  O  O23  1  0.997479  0.210182  0.591376  1
  O  O24  1  0.377298  0.232418  0.948095  1
  O  O25  1  0.811457  0.134360  0.933446  1
  O  O26  1  0.289095  0.154190  0.333567  1
  O  O27  1  0.718908  0.029273  0.334756  1
