# generated using pymatgen
data_LiTi2V3O10
_symmetry_space_group_name_H-M   'P 1'
_cell_length_a   5.12471304
_cell_length_b   5.14791884
_cell_length_c   7.83861264
_cell_angle_alpha   74.56499266
_cell_angle_beta   76.02543950
_cell_angle_gamma   79.23636025
_symmetry_Int_Tables_number   1
_chemical_formula_structural   LiTi2V3O10
_chemical_formula_sum   'Li1 Ti2 V3 O10'
_cell_volume   191.77139031
_cell_formula_units_Z   1
loop_
 _symmetry_equiv_pos_site_id
 _symmetry_equiv_pos_as_xyz
  1  'x, y, z'
loop_
 _atom_site_type_symbol
 _atom_site_label
 _atom_site_symmetry_multiplicity
 _atom_site_fract_x
 _atom_site_fract_y
 _atom_site_fract_z
 _atom_site_occupancy
  Li  Li0  1  0.500113  0.298342  0.550509  1
  Ti  Ti1  1  0.036024  0.874374  0.686880  1
  Ti  Ti2  1  0.025776  0.090491  0.324601  1
  V  V3  1  0.490067  0.993801  0.000562  1
  V  V4  1  0.969071  0.306557  0.890723  1
  V  V5  1  0.979486  0.667378  0.132371  1
  O  O6  1  0.222358  0.967502  0.859044  1
  O  O7  1  0.799105  0.921779  0.524474  1
  O  O8  1  0.789993  0.669813  0.939000  1
  O  O9  1  0.244871  0.799219  0.216780  1
  O  O10  1  0.187274  0.521795  0.690845  1
  O  O11  1  0.809098  0.457039  0.324309  1
  O  O12  1  0.739308  0.203518  0.784993  1
  O  O13  1  0.193319  0.328400  0.063282  1
  O  O14  1  0.243282  0.087186  0.480705  1
  O  O15  1  0.778286  0.034523  0.125212  1
