# generated using pymatgen
data_Mn4O7F
_symmetry_space_group_name_H-M   'P 1'
_cell_length_a   4.47666099
_cell_length_b   10.98842240
_cell_length_c   6.69582484
_cell_angle_alpha   90.00000000
_cell_angle_beta   131.96368599
_cell_angle_gamma   90.00000000
_symmetry_Int_Tables_number   1
_chemical_formula_structural   Mn4O7F
_chemical_formula_sum   'Mn8 O14 F2'
_cell_volume   244.91465796
_cell_formula_units_Z   2
loop_
 _symmetry_equiv_pos_site_id
 _symmetry_equiv_pos_as_xyz
  1  'x, y, z'
loop_
 _atom_site_type_symbol
 _atom_site_label
 _atom_site_symmetry_multiplicity
 _atom_site_fract_x
 _atom_site_fract_y
 _atom_site_fract_z
 _atom_site_occupancy
  Mn  Mn0  1  0.478980  0.426742  0.486242  1
  Mn  Mn1  1  0.009776  0.082057  0.996363  1
  Mn  Mn2  1  0.990224  0.582057  0.003637  1
  Mn  Mn3  1  0.521020  0.926742  0.513758  1
  Mn  Mn4  1  0.475101  0.818704  0.994760  1
  Mn  Mn5  1  0.004505  0.177126  0.501394  1
  Mn  Mn6  1  0.524899  0.318704  0.005240  1
  Mn  Mn7  1  0.995495  0.677126  0.498606  1
  O  O8  1  0.565099  0.055193  0.330432  1
  O  O9  1  0.554415  0.556105  0.323320  1
  O  O10  1  0.064085  0.943405  0.835086  1
  O  O11  1  0.105953  0.197023  0.826502  1
  O  O12  1  0.598243  0.305266  0.324785  1
  O  O13  1  0.086440  0.693743  0.825641  1
  O  O14  1  0.588665  0.804662  0.329999  1
  O  O15  1  0.913560  0.193743  0.174359  1
  O  O16  1  0.411335  0.304662  0.670001  1
  O  O17  1  0.894047  0.697023  0.173498  1
  O  O18  1  0.401757  0.805266  0.675215  1
  O  O19  1  0.445585  0.056105  0.676680  1
  O  O20  1  0.935915  0.443405  0.164914  1
  O  O21  1  0.434901  0.555193  0.669568  1
  F  F22  1  0.072543  0.439976  0.826582  1
  F  F23  1  0.927457  0.939976  0.173418  1
