# generated using pymatgen
data_Li3MnV(PO4)3
_symmetry_space_group_name_H-M   'P 1'
_cell_length_a   8.33622056
_cell_length_b   8.40901929
_cell_length_c   9.24979302
_cell_angle_alpha   63.82069958
_cell_angle_beta   63.88795761
_cell_angle_gamma   60.57839353
_symmetry_Int_Tables_number   1
_chemical_formula_structural   Li3MnV(PO4)3
_chemical_formula_sum   'Li6 Mn2 V2 P6 O24'
_cell_volume   485.70206831
_cell_formula_units_Z   2
loop_
 _symmetry_equiv_pos_site_id
 _symmetry_equiv_pos_as_xyz
  1  'x, y, z'
loop_
 _atom_site_type_symbol
 _atom_site_label
 _atom_site_symmetry_multiplicity
 _atom_site_fract_x
 _atom_site_fract_y
 _atom_site_fract_z
 _atom_site_occupancy
  Li  Li0  1  0.070319  0.318577  0.865805  1
  Li  Li1  1  0.295640  0.743790  0.913752  1
  Li  Li2  1  0.458240  0.732028  0.599103  1
  Li  Li3  1  0.541760  0.267972  0.400897  1
  Li  Li4  1  0.704360  0.256210  0.086248  1
  Li  Li5  1  0.929681  0.681423  0.134195  1
  Mn  Mn6  1  0.864015  0.855842  0.434268  1
  Mn  Mn7  1  0.135985  0.144158  0.565732  1
  V  V8  1  0.346346  0.334344  0.962975  1
  V  V9  1  0.653654  0.665656  0.037025  1
  P  P10  1  0.733281  0.467029  0.753947  1
  P  P11  1  0.051877  0.730307  0.759143  1
  P  P12  1  0.457654  0.043168  0.757918  1
  P  P13  1  0.542346  0.956832  0.242082  1
  P  P14  1  0.948123  0.269693  0.240857  1
  P  P15  1  0.266719  0.532971  0.246053  1
  O  O16  1  0.780893  0.483653  0.896990  1
  O  O17  1  0.868630  0.269073  0.740297  1
  O  O18  1  0.513918  0.488802  0.824272  1
  O  O19  1  0.171961  0.510138  0.821017  1
  O  O20  1  0.860222  0.771205  0.906087  1
  O  O21  1  0.493278  0.834916  0.881195  1
  O  O22  1  0.737665  0.634151  0.594689  1
  O  O23  1  0.168455  0.837278  0.745091  1
  O  O24  1  0.018894  0.775033  0.596691  1
  O  O25  1  0.475923  0.165314  0.835155  1
  O  O26  1  0.249792  0.126345  0.753542  1
  O  O27  1  0.601378  0.044431  0.584626  1
  O  O28  1  0.398622  0.955569  0.415374  1
  O  O29  1  0.750208  0.873655  0.246458  1
  O  O30  1  0.524077  0.834686  0.164845  1
  O  O31  1  0.981106  0.224967  0.403309  1
  O  O32  1  0.831545  0.162722  0.254909  1
  O  O33  1  0.262335  0.365849  0.405311  1
  O  O34  1  0.506722  0.165084  0.118805  1
  O  O35  1  0.139778  0.228795  0.093913  1
  O  O36  1  0.828039  0.489862  0.178983  1
  O  O37  1  0.486082  0.511198  0.175728  1
  O  O38  1  0.131370  0.730927  0.259703  1
  O  O39  1  0.219107  0.516347  0.103010  1
