# generated using pymatgen
data_Li2V3CrO8
_symmetry_space_group_name_H-M   'P 1'
_cell_length_a   8.35828193
_cell_length_b   8.46114466
_cell_length_c   8.47753016
_cell_angle_alpha   90.00000000
_cell_angle_beta   90.37625378
_cell_angle_gamma   90.00000000
_symmetry_Int_Tables_number   1
_chemical_formula_structural   Li2V3CrO8
_chemical_formula_sum   'Li8 V12 Cr4 O32'
_cell_volume   599.52336849
_cell_formula_units_Z   4
loop_
 _symmetry_equiv_pos_site_id
 _symmetry_equiv_pos_as_xyz
  1  'x, y, z'
loop_
 _atom_site_type_symbol
 _atom_site_label
 _atom_site_symmetry_multiplicity
 _atom_site_fract_x
 _atom_site_fract_y
 _atom_site_fract_z
 _atom_site_occupancy
  Li  Li0  1  0.255111  0.004434  0.501735  1
  Li  Li1  1  0.497284  0.247603  0.745934  1
  Li  Li2  1  0.994978  0.757770  0.756219  1
  Li  Li3  1  0.755388  0.997637  0.994853  1
  Li  Li4  1  0.244612  0.497637  0.005147  1
  Li  Li5  1  0.005022  0.257770  0.243781  1
  Li  Li6  1  0.502716  0.747603  0.254066  1
  Li  Li7  1  0.744889  0.504434  0.498265  1
  V  V8  1  0.878637  0.128029  0.621376  1
  V  V9  1  0.118171  0.380834  0.624083  1
  V  V10  1  0.373037  0.621473  0.629350  1
  V  V11  1  0.871791  0.373011  0.871686  1
  V  V12  1  0.622556  0.626500  0.877868  1
  V  V13  1  0.375947  0.869693  0.878037  1
  V  V14  1  0.624053  0.369693  0.121963  1
  V  V15  1  0.377444  0.126500  0.122132  1
  V  V16  1  0.128209  0.873011  0.128314  1
  V  V17  1  0.626963  0.121473  0.370650  1
  V  V18  1  0.881829  0.880834  0.375917  1
  V  V19  1  0.121363  0.628029  0.378624  1
  Cr  Cr20  1  0.624450  0.875202  0.626007  1
  Cr  Cr21  1  0.125142  0.124256  0.876992  1
  Cr  Cr22  1  0.874858  0.624256  0.123008  1
  Cr  Cr23  1  0.375550  0.375202  0.373993  1
  O  O24  1  0.644218  0.114976  0.608703  1
  O  O25  1  0.864685  0.892720  0.610755  1
  O  O26  1  0.133275  0.619331  0.615815  1
  O  O27  1  0.105923  0.137789  0.635537  1
  O  O28  1  0.366613  0.397174  0.613978  1
  O  O29  1  0.874702  0.361340  0.637114  1
  O  O30  1  0.610675  0.636967  0.641234  1
  O  O31  1  0.382053  0.850730  0.638985  1
  O  O32  1  0.882759  0.139759  0.856544  1
  O  O33  1  0.099932  0.367167  0.865189  1
  O  O34  1  0.392838  0.621178  0.866269  1
  O  O35  1  0.854586  0.611746  0.883804  1
  O  O36  1  0.616639  0.857099  0.864703  1
  O  O37  1  0.641396  0.383922  0.883663  1
  O  O38  1  0.366452  0.113976  0.889628  1
  O  O39  1  0.137878  0.888423  0.893052  1
  O  O40  1  0.862122  0.388423  0.106948  1
  O  O41  1  0.633548  0.613976  0.110372  1
  O  O42  1  0.358604  0.883922  0.116337  1
  O  O43  1  0.383361  0.357099  0.135297  1
  O  O44  1  0.145414  0.111746  0.116196  1
  O  O45  1  0.607162  0.121178  0.133731  1
  O  O46  1  0.900068  0.867167  0.134811  1
  O  O47  1  0.117241  0.639759  0.143456  1
  O  O48  1  0.617947  0.350730  0.361015  1
  O  O49  1  0.389325  0.136967  0.358766  1
  O  O50  1  0.125298  0.861340  0.362886  1
  O  O51  1  0.633387  0.897174  0.386022  1
  O  O52  1  0.894077  0.637789  0.364463  1
  O  O53  1  0.866725  0.119331  0.384185  1
  O  O54  1  0.135315  0.392720  0.389245  1
  O  O55  1  0.355782  0.614976  0.391297  1
