# generated using pymatgen
data_NbO2F
_symmetry_space_group_name_H-M   'P 1'
_cell_length_a   5.42385223
_cell_length_b   5.42385223
_cell_length_c   5.66847873
_cell_angle_alpha   60.34872746
_cell_angle_beta   119.65127254
_cell_angle_gamma   118.39591094
_symmetry_Int_Tables_number   1
_chemical_formula_structural   NbO2F
_chemical_formula_sum   'Nb2 O4 F2'
_cell_volume   119.91749779
_cell_formula_units_Z   2
loop_
 _symmetry_equiv_pos_site_id
 _symmetry_equiv_pos_as_xyz
  1  'x, y, z'
loop_
 _atom_site_type_symbol
 _atom_site_label
 _atom_site_symmetry_multiplicity
 _atom_site_fract_x
 _atom_site_fract_y
 _atom_site_fract_z
 _atom_site_occupancy
  Nb  Nb0  1  0.311489  0.248082  0.858032  1
  Nb  Nb1  1  0.751918  0.688511  0.358032  1
  O  O2  1  0.961280  0.397372  0.585892  1
  O  O3  1  0.536569  0.549469  0.600469  1
  O  O4  1  0.602628  0.038720  0.085892  1
  O  O5  1  0.450531  0.463431  0.100469  1
  F  F6  1  0.110748  0.967594  0.591959  1
  F  F7  1  0.032406  0.889252  0.091959  1
