# generated using pymatgen
data_Fe5O3F7
_symmetry_space_group_name_H-M   'P 1'
_cell_length_a   4.81066029
_cell_length_b   4.81974678
_cell_length_c   15.57649945
_cell_angle_alpha   90.13187316
_cell_angle_beta   90.22685714
_cell_angle_gamma   91.02120141
_symmetry_Int_Tables_number   1
_chemical_formula_structural   Fe5O3F7
_chemical_formula_sum   'Fe10 O6 F14'
_cell_volume   361.09806705
_cell_formula_units_Z   2
loop_
 _symmetry_equiv_pos_site_id
 _symmetry_equiv_pos_as_xyz
  1  'x, y, z'
loop_
 _atom_site_type_symbol
 _atom_site_label
 _atom_site_symmetry_multiplicity
 _atom_site_fract_x
 _atom_site_fract_y
 _atom_site_fract_z
 _atom_site_occupancy
  Fe  Fe0  1  0.958886  0.027709  0.996073  1
  Fe  Fe1  1  0.002899  0.994606  0.800009  1
  Fe  Fe2  1  0.021731  0.022689  0.599504  1
  Fe  Fe3  1  0.021540  0.025550  0.400280  1
  Fe  Fe4  1  0.044819  0.972448  0.204551  1
  Fe  Fe5  1  0.539626  0.525750  0.906368  1
  Fe  Fe6  1  0.486614  0.488363  0.498758  1
  Fe  Fe7  1  0.475351  0.474308  0.701858  1
  Fe  Fe8  1  0.477449  0.486532  0.294085  1
  Fe  Fe9  1  0.499514  0.501992  0.101328  1
  O  O10  1  0.178059  0.175846  0.703007  1
  O  O11  1  0.187248  0.190761  0.500946  1
  O  O12  1  0.188228  0.179347  0.299976  1
  O  O13  1  0.308496  0.692023  0.190549  1
  O  O14  1  0.677425  0.333108  0.003440  1
  O  O15  1  0.809666  0.811137  0.891454  1
  F  F16  1  0.213601  0.215499  0.892791  1
  F  F17  1  0.198098  0.195844  0.103024  1
  F  F18  1  0.299720  0.712253  0.000062  1
  F  F19  1  0.304421  0.699100  0.807421  1
  F  F20  1  0.288664  0.705768  0.601328  1
  F  F21  1  0.286550  0.709496  0.399484  1
  F  F22  1  0.704531  0.301193  0.806566  1
  F  F23  1  0.704892  0.289373  0.600861  1
  F  F24  1  0.706884  0.291729  0.397871  1
  F  F25  1  0.713571  0.286658  0.191062  1
  F  F26  1  0.799080  0.801734  0.500245  1
  F  F27  1  0.793640  0.790822  0.698740  1
  F  F28  1  0.803591  0.804053  0.106904  1
  F  F29  1  0.805206  0.794308  0.301455  1
