# generated using pymatgen
data_Li2FePCO7
_symmetry_space_group_name_H-M   'P 1'
_cell_length_a   5.07660240
_cell_length_b   6.51401561
_cell_length_c   8.30268178
_cell_angle_alpha   91.21485697
_cell_angle_beta   94.97702336
_cell_angle_gamma   90.48105692
_symmetry_Int_Tables_number   1
_chemical_formula_structural   Li2FePCO7
_chemical_formula_sum   'Li4 Fe2 P2 C2 O14'
_cell_volume   273.45080197
_cell_formula_units_Z   2
loop_
 _symmetry_equiv_pos_site_id
 _symmetry_equiv_pos_as_xyz
  1  'x, y, z'
loop_
 _atom_site_type_symbol
 _atom_site_label
 _atom_site_symmetry_multiplicity
 _atom_site_fract_x
 _atom_site_fract_y
 _atom_site_fract_z
 _atom_site_occupancy
  Li  Li0  1  0.761628  0.736545  0.901634  1
  Li  Li1  1  0.249193  0.970222  0.724639  1
  Li  Li2  1  0.750807  0.029778  0.275361  1
  Li  Li3  1  0.238372  0.263455  0.098366  1
  Fe  Fe4  1  0.798419  0.260751  0.670323  1
  Fe  Fe5  1  0.201581  0.739249  0.329677  1
  P  P6  1  0.723122  0.760431  0.579760  1
  P  P7  1  0.276878  0.239569  0.420240  1
  C  C8  1  0.701218  0.232939  0.959507  1
  C  C9  1  0.298782  0.767061  0.040493  1
  O  O10  1  0.946872  0.253359  0.923926  1
  O  O11  1  0.367881  0.784948  0.898340  1
  O  O12  1  0.525067  0.234964  0.834261  1
  O  O13  1  0.828175  0.936318  0.698528  1
  O  O14  1  0.782708  0.563880  0.677455  1
  O  O15  1  0.143461  0.232300  0.579958  1
  O  O16  1  0.419044  0.784317  0.539490  1
  O  O17  1  0.580956  0.215683  0.460510  1
  O  O18  1  0.856539  0.767700  0.420042  1
  O  O19  1  0.217292  0.436120  0.322545  1
  O  O20  1  0.171825  0.063682  0.301472  1
  O  O21  1  0.474933  0.765036  0.165739  1
  O  O22  1  0.632119  0.215052  0.101660  1
  O  O23  1  0.053128  0.746641  0.076074  1
