# generated using pymatgen
data_Fe6O11F
_symmetry_space_group_name_H-M   'P 1'
_cell_length_a   10.28884994
_cell_length_b   10.28884994
_cell_length_c   2.97686386
_cell_angle_alpha   90.00000000
_cell_angle_beta   90.00000000
_cell_angle_gamma   142.31145279
_symmetry_Int_Tables_number   1
_chemical_formula_structural   Fe6O11F
_chemical_formula_sum   'Fe6 O11 F1'
_cell_volume   192.66195452
_cell_formula_units_Z   1
loop_
 _symmetry_equiv_pos_site_id
 _symmetry_equiv_pos_as_xyz
  1  'x, y, z'
loop_
 _atom_site_type_symbol
 _atom_site_label
 _atom_site_symmetry_multiplicity
 _atom_site_fract_x
 _atom_site_fract_y
 _atom_site_fract_z
 _atom_site_occupancy
  Fe  Fe0  1  0.998790  0.666552  0.000000  1
  Fe  Fe1  1  0.499435  0.166189  0.500000  1
  Fe  Fe2  1  0.666552  0.998790  0.000000  1
  Fe  Fe3  1  0.849003  0.849003  0.500000  1
  Fe  Fe4  1  0.166189  0.499435  0.500000  1
  Fe  Fe5  1  0.320850  0.320850  0.000000  1
  O  O6  1  0.688211  0.354892  0.000000  1
  O  O7  1  0.977360  0.310365  1.000000  1
  O  O8  1  0.310365  0.977360  0.000000  1
  O  O9  1  0.604016  0.062230  0.500000  1
  O  O10  1  0.730284  0.933119  0.500000  1
  O  O11  1  0.062230  0.604016  0.500000  1
  O  O12  1  0.354892  0.688211  0.000000  1
  O  O13  1  0.933119  0.730284  0.500000  1
  O  O14  1  0.272377  0.399220  0.500000  1
  O  O15  1  0.399220  0.272377  0.500000  1
  O  O16  1  0.025064  0.025064  0.000000  1
  F  F17  1  0.637672  0.637672  0.000000  1
