# generated using pymatgen
data_Tm2WO6
_symmetry_space_group_name_H-M   'P 1'
_cell_length_a   7.62013316
_cell_length_b   5.33015914
_cell_length_c   11.35534522
_cell_angle_alpha   90.00000000
_cell_angle_beta   104.77884424
_cell_angle_gamma   90.00000000
_symmetry_Int_Tables_number   1
_chemical_formula_structural   Tm2WO6
_chemical_formula_sum   'Tm8 W4 O24'
_cell_volume   445.95656600
_cell_formula_units_Z   4
loop_
 _symmetry_equiv_pos_site_id
 _symmetry_equiv_pos_as_xyz
  1  'x, y, z'
loop_
 _atom_site_type_symbol
 _atom_site_label
 _atom_site_symmetry_multiplicity
 _atom_site_fract_x
 _atom_site_fract_y
 _atom_site_fract_z
 _atom_site_occupancy
  Tm  Tm0  1  0.000000  0.738175  0.750000  1
  Tm  Tm1  1  0.000000  0.261825  0.250000  1
  Tm  Tm2  1  0.203147  0.186815  0.578536  1
  Tm  Tm3  1  0.203147  0.813185  0.078536  1
  Tm  Tm4  1  0.500000  0.683797  0.750000  1
  Tm  Tm5  1  0.500000  0.316203  0.250000  1
  Tm  Tm6  1  0.796853  0.186815  0.921464  1
  Tm  Tm7  1  0.796853  0.813185  0.421464  1
  W  W8  1  0.278708  0.254922  0.886512  1
  W  W9  1  0.278708  0.745078  0.386512  1
  W  W10  1  0.721292  0.254922  0.613488  1
  W  W11  1  0.721292  0.745078  0.113488  1
  O  O12  1  0.059718  0.037493  0.895794  1
  O  O13  1  0.148578  0.531466  0.930836  1
  O  O14  1  0.059718  0.962507  0.395794  1
  O  O15  1  0.211537  0.464554  0.726467  1
  O  O16  1  0.148578  0.468534  0.430836  1
  O  O17  1  0.290017  0.981928  0.769795  1
  O  O18  1  0.211537  0.535446  0.226467  1
  O  O19  1  0.366966  0.852911  0.550261  1
  O  O20  1  0.513294  0.363737  0.887121  1
  O  O21  1  0.290017  0.018072  0.269795  1
  O  O22  1  0.486706  0.363737  0.612879  1
  O  O23  1  0.633034  0.852911  0.949739  1
  O  O24  1  0.366966  0.147089  0.050261  1
  O  O25  1  0.513294  0.636263  0.387121  1
  O  O26  1  0.709983  0.981928  0.730205  1
  O  O27  1  0.486706  0.636263  0.112879  1
  O  O28  1  0.633034  0.147089  0.449739  1
  O  O29  1  0.788463  0.464554  0.773533  1
  O  O30  1  0.709983  0.018072  0.230205  1
  O  O31  1  0.851422  0.531466  0.569164  1
  O  O32  1  0.788463  0.535446  0.273533  1
  O  O33  1  0.940282  0.037493  0.604206  1
  O  O34  1  0.851422  0.468534  0.069164  1
  O  O35  1  0.940282  0.962507  0.104206  1
