# generated using pymatgen
data_Li2Co3SbO8
_symmetry_space_group_name_H-M   'P 1'
_cell_length_a   8.25882518
_cell_length_b   8.25882518
_cell_length_c   8.25882518
_cell_angle_alpha   90.00000000
_cell_angle_beta   90.00000000
_cell_angle_gamma   90.00000000
_symmetry_Int_Tables_number   1
_chemical_formula_structural   Li2Co3SbO8
_chemical_formula_sum   'Li8 Co12 Sb4 O32'
_cell_volume   563.31954407
_cell_formula_units_Z   4
loop_
 _symmetry_equiv_pos_site_id
 _symmetry_equiv_pos_as_xyz
  1  'x, y, z'
loop_
 _atom_site_type_symbol
 _atom_site_label
 _atom_site_symmetry_multiplicity
 _atom_site_fract_x
 _atom_site_fract_y
 _atom_site_fract_z
 _atom_site_occupancy
  Li  Li0  1  0.996058  0.996058  0.996058  1
  Li  Li1  1  0.253942  0.253942  0.253942  1
  Li  Li2  1  0.246058  0.746058  0.753942  1
  Li  Li3  1  0.503942  0.003942  0.496058  1
  Li  Li4  1  0.496058  0.503942  0.003942  1
  Li  Li5  1  0.753942  0.246058  0.746058  1
  Li  Li6  1  0.746058  0.753942  0.246058  1
  Li  Li7  1  0.003942  0.496058  0.503942  1
  Co  Co8  1  0.117948  0.132052  0.625000  1
  Co  Co9  1  0.125000  0.382052  0.867948  1
  Co  Co10  1  0.132052  0.625000  0.117948  1
  Co  Co11  1  0.367948  0.375000  0.617948  1
  Co  Co12  1  0.375000  0.617948  0.367948  1
  Co  Co13  1  0.382052  0.867948  0.125000  1
  Co  Co14  1  0.617948  0.367948  0.375000  1
  Co  Co15  1  0.625000  0.117948  0.132052  1
  Co  Co16  1  0.632052  0.875000  0.882052  1
  Co  Co17  1  0.867948  0.125000  0.382052  1
  Co  Co18  1  0.875000  0.882052  0.632052  1
  Co  Co19  1  0.882052  0.632052  0.875000  1
  Sb  Sb20  1  0.125000  0.875000  0.375000  1
  Sb  Sb21  1  0.375000  0.125000  0.875000  1
  Sb  Sb22  1  0.625000  0.625000  0.625000  1
  Sb  Sb23  1  0.875000  0.375000  0.125000  1
  O  O24  1  0.105860  0.119724  0.390126  1
  O  O25  1  0.109874  0.894140  0.619724  1
  O  O26  1  0.112188  0.612188  0.887812  1
  O  O27  1  0.130276  0.144140  0.859874  1
  O  O28  1  0.119724  0.390126  0.105860  1
  O  O29  1  0.137812  0.362188  0.637812  1
  O  O30  1  0.140126  0.630276  0.355860  1
  O  O31  1  0.144140  0.859874  0.130276  1
  O  O32  1  0.355860  0.140126  0.630276  1
  O  O33  1  0.359874  0.369724  0.855860  1
  O  O34  1  0.362188  0.637812  0.137812  1
  O  O35  1  0.380276  0.609874  0.605860  1
  O  O36  1  0.369724  0.855860  0.359874  1
  O  O37  1  0.387812  0.387812  0.387812  1
  O  O38  1  0.390126  0.105860  0.119724  1
  O  O39  1  0.394140  0.880276  0.890126  1
  O  O40  1  0.605860  0.380276  0.609874  1
  O  O41  1  0.609874  0.605860  0.380276  1
  O  O42  1  0.612188  0.887812  0.112188  1
  O  O43  1  0.630276  0.355860  0.140126  1
  O  O44  1  0.619724  0.109874  0.894140  1
  O  O45  1  0.637812  0.137812  0.362188  1
  O  O46  1  0.640126  0.869724  0.644140  1
  O  O47  1  0.644140  0.640126  0.869724  1
  O  O48  1  0.855860  0.359874  0.369724  1
  O  O49  1  0.859874  0.130276  0.144140  1
  O  O50  1  0.862188  0.862188  0.862188  1
  O  O51  1  0.880276  0.890126  0.394140  1
  O  O52  1  0.869724  0.644140  0.640126  1
  O  O53  1  0.887812  0.112188  0.612188  1
  O  O54  1  0.890126  0.394140  0.880276  1
  O  O55  1  0.894140  0.619724  0.109874  1
