# generated using pymatgen
data_Li4Mn3Co2Te3O16
_symmetry_space_group_name_H-M   'P 1'
_cell_length_a   6.26057375
_cell_length_b   6.27556077
_cell_length_c   9.83400549
_cell_angle_alpha   89.09313744
_cell_angle_beta   88.74404381
_cell_angle_gamma   60.10706610
_symmetry_Int_Tables_number   1
_chemical_formula_structural   Li4Mn3Co2Te3O16
_chemical_formula_sum   'Li4 Mn3 Co2 Te3 O16'
_cell_volume   334.87597469
_cell_formula_units_Z   1
loop_
 _symmetry_equiv_pos_site_id
 _symmetry_equiv_pos_as_xyz
  1  'x, y, z'
loop_
 _atom_site_type_symbol
 _atom_site_label
 _atom_site_symmetry_multiplicity
 _atom_site_fract_x
 _atom_site_fract_y
 _atom_site_fract_z
 _atom_site_occupancy
  Li  Li0  1  0.659375  0.656236  0.124402  1
  Li  Li1  1  0.989605  0.994450  0.005017  1
  Li  Li2  1  0.984787  0.006611  0.495472  1
  Li  Li3  1  0.338875  0.298517  0.604855  1
  Mn  Mn4  1  0.840129  0.823816  0.784473  1
  Mn  Mn5  1  0.661068  0.169424  0.284537  1
  Mn  Mn6  1  0.168296  0.667368  0.284977  1
  Co  Co7  1  0.689923  0.675139  0.496961  1
  Co  Co8  1  0.330832  0.363393  0.016275  1
  Te  Te9  1  0.834974  0.333728  0.785484  1
  Te  Te10  1  0.346967  0.825069  0.782466  1
  Te  Te11  1  0.168519  0.174799  0.284768  1
  O  O12  1  0.867978  0.324152  0.399839  1
  O  O13  1  0.535468  0.491728  0.666649  1
  O  O14  1  0.677397  0.634794  0.900831  1
  O  O15  1  0.979898  0.031632  0.678428  1
  O  O16  1  0.994390  0.037852  0.185660  1
  O  O17  1  0.307636  0.859264  0.390287  1
  O  O18  1  0.973474  0.483121  0.665958  1
  O  O19  1  0.531034  0.941125  0.647823  1
  O  O20  1  0.123442  0.192305  0.902394  1
  O  O21  1  0.847407  0.851676  0.386002  1
  O  O22  1  0.453089  0.038393  0.159075  1
  O  O23  1  0.034152  0.482056  0.175651  1
  O  O24  1  0.337936  0.302349  0.397069  1
  O  O25  1  0.684225  0.183799  0.898397  1
  O  O26  1  0.476418  0.475391  0.178913  1
  O  O27  1  0.163004  0.681519  0.909498  1
