# generated using pymatgen
data_Li4Fe7(OF7)2
_symmetry_space_group_name_H-M   'P 1'
_cell_length_a   6.18790530
_cell_length_b   6.22051529
_cell_length_c   10.77646682
_cell_angle_alpha   91.03347761
_cell_angle_beta   105.74203150
_cell_angle_gamma   119.43503124
_symmetry_Int_Tables_number   1
_chemical_formula_structural   Li4Fe7(OF7)2
_chemical_formula_sum   'Li4 Fe7 O2 F14'
_cell_volume   341.99552198
_cell_formula_units_Z   1
loop_
 _symmetry_equiv_pos_site_id
 _symmetry_equiv_pos_as_xyz
  1  'x, y, z'
loop_
 _atom_site_type_symbol
 _atom_site_label
 _atom_site_symmetry_multiplicity
 _atom_site_fract_x
 _atom_site_fract_y
 _atom_site_fract_z
 _atom_site_occupancy
  Li  Li0  1  0.356964  0.888589  0.813026  1
  Li  Li1  1  0.621215  0.576728  0.680017  1
  Li  Li2  1  0.378785  0.423272  0.319983  1
  Li  Li3  1  0.643036  0.111411  0.186974  1
  Fe  Fe4  1  0.000000  0.000000  0.000000  1
  Fe  Fe5  1  0.014445  0.253548  0.749418  1
  Fe  Fe6  1  0.000000  0.500000  0.000000  1
  Fe  Fe7  1  0.500000  0.500000  0.000000  1
  Fe  Fe8  1  0.000000  0.500000  0.500000  1
  Fe  Fe9  1  0.985555  0.746452  0.250582  1
  Fe  Fe10  1  0.500000  0.000000  0.500000  1
  O  O11  1  0.771999  0.436415  0.112108  1
  O  O12  1  0.228001  0.563585  0.887892  1
  F  F13  1  0.238875  0.104150  0.875515  1
  F  F14  1  0.753128  0.105587  0.879684  1
  F  F15  1  0.240648  0.356230  0.126259  1
  F  F16  1  0.759352  0.643770  0.873741  1
  F  F17  1  0.246872  0.894413  0.120316  1
  F  F18  1  0.761125  0.895850  0.124485  1
  F  F19  1  0.760016  0.602878  0.379511  1
  F  F20  1  0.249123  0.627515  0.377406  1
  F  F21  1  0.244410  0.088632  0.366669  1
  F  F22  1  0.730155  0.138933  0.381237  1
  F  F23  1  0.755590  0.911368  0.633331  1
  F  F24  1  0.269845  0.861067  0.618763  1
  F  F25  1  0.239984  0.397122  0.620489  1
  F  F26  1  0.750877  0.372485  0.622594  1
