# generated using pymatgen
data_Li5SbS
_symmetry_space_group_name_H-M   'P 1'
_cell_length_a   6.15884177
_cell_length_b   8.18470760
_cell_length_c   9.74956263
_cell_angle_alpha   90.00000000
_cell_angle_beta   90.00000000
_cell_angle_gamma   90.00000000
_symmetry_Int_Tables_number   1
_chemical_formula_structural   Li5SbS
_chemical_formula_sum   'Li20 Sb4 S4'
_cell_volume   491.45906381
_cell_formula_units_Z   4
loop_
 _symmetry_equiv_pos_site_id
 _symmetry_equiv_pos_as_xyz
  1  'x, y, z'
loop_
 _atom_site_type_symbol
 _atom_site_label
 _atom_site_symmetry_multiplicity
 _atom_site_fract_x
 _atom_site_fract_y
 _atom_site_fract_z
 _atom_site_occupancy
  Li  Li0  1  0.750000  0.325138  0.814736  1
  Li  Li1  1  0.502493  0.951323  0.129516  1
  Li  Li2  1  0.497507  0.451323  0.370484  1
  Li  Li3  1  0.485620  0.337997  0.083395  1
  Li  Li4  1  0.514380  0.837997  0.416605  1
  Li  Li5  1  0.485620  0.162003  0.583395  1
  Li  Li6  1  0.514380  0.662003  0.916605  1
  Li  Li7  1  0.497507  0.048677  0.870484  1
  Li  Li8  1  0.502493  0.548677  0.629516  1
  Li  Li9  1  0.250000  0.825138  0.685264  1
  Li  Li10  1  0.250000  0.674862  0.185264  1
  Li  Li11  1  0.997507  0.951323  0.129516  1
  Li  Li12  1  0.002493  0.451323  0.370484  1
  Li  Li13  1  0.985620  0.837997  0.416605  1
  Li  Li14  1  0.014380  0.337997  0.083395  1
  Li  Li15  1  0.985620  0.662003  0.916605  1
  Li  Li16  1  0.014380  0.162003  0.583395  1
  Li  Li17  1  0.002493  0.048677  0.870484  1
  Li  Li18  1  0.997507  0.548677  0.629516  1
  Li  Li19  1  0.750000  0.174862  0.314736  1
  Sb  Sb20  1  0.750000  0.866940  0.673415  1
  Sb  Sb21  1  0.250000  0.133060  0.326585  1
  Sb  Sb22  1  0.250000  0.366940  0.826585  1
  Sb  Sb23  1  0.750000  0.633060  0.173415  1
  S  S24  1  0.750000  0.142782  0.037063  1
  S  S25  1  0.250000  0.642782  0.462937  1
  S  S26  1  0.250000  0.857218  0.962937  1
  S  S27  1  0.750000  0.357218  0.537063  1
