# generated using pymatgen
data_MgMnO3
_symmetry_space_group_name_H-M   'P 1'
_cell_length_a   5.46312193
_cell_length_b   5.46312193
_cell_length_c   5.46312193
_cell_angle_alpha   54.69834587
_cell_angle_beta   54.69834587
_cell_angle_gamma   54.69834587
_symmetry_Int_Tables_number   1
_chemical_formula_structural   MgMnO3
_chemical_formula_sum   'Mg2 Mn2 O6'
_cell_volume   101.05500626
_cell_formula_units_Z   2
loop_
 _symmetry_equiv_pos_site_id
 _symmetry_equiv_pos_as_xyz
  1  'x, y, z'
loop_
 _atom_site_type_symbol
 _atom_site_label
 _atom_site_symmetry_multiplicity
 _atom_site_fract_x
 _atom_site_fract_y
 _atom_site_fract_z
 _atom_site_occupancy
  Mg  Mg0  1  0.859524  0.859524  0.859524  1
  Mg  Mg1  1  0.140476  0.140476  0.140476  1
  Mn  Mn2  1  0.657703  0.657703  0.657703  1
  Mn  Mn3  1  0.342297  0.342297  0.342297  1
  O  O4  1  0.278379  0.546478  0.940285  1
  O  O5  1  0.940285  0.278379  0.546478  1
  O  O6  1  0.546478  0.940285  0.278379  1
  O  O7  1  0.453522  0.059715  0.721621  1
  O  O8  1  0.059715  0.721621  0.453522  1
  O  O9  1  0.721621  0.453522  0.059715  1
