# generated using pymatgen
data_Li4Sb(TeO4)3
_symmetry_space_group_name_H-M   'P 1'
_cell_length_a   5.30203628
_cell_length_b   5.60855651
_cell_length_c   7.72804597
_cell_angle_alpha   94.43474426
_cell_angle_beta   90.00115946
_cell_angle_gamma   90.02385232
_symmetry_Int_Tables_number   1
_chemical_formula_structural   Li4Sb(TeO4)3
_chemical_formula_sum   'Li4 Sb1 Te3 O12'
_cell_volume   229.11907425
_cell_formula_units_Z   1
loop_
 _symmetry_equiv_pos_site_id
 _symmetry_equiv_pos_as_xyz
  1  'x, y, z'
loop_
 _atom_site_type_symbol
 _atom_site_label
 _atom_site_symmetry_multiplicity
 _atom_site_fract_x
 _atom_site_fract_y
 _atom_site_fract_z
 _atom_site_occupancy
  Li  Li0  1  0.993328  0.420048  0.286527  1
  Li  Li1  1  0.505499  0.921784  0.792733  1
  Li  Li2  1  0.003525  0.453499  0.778955  1
  Li  Li3  1  0.497833  0.950787  0.269257  1
  Sb  Sb4  1  0.000345  0.996371  0.001722  1
  Te  Te5  1  0.999930  0.996256  0.502431  1
  Te  Te6  1  0.500480  0.491904  0.003977  1
  Te  Te7  1  0.498848  0.494448  0.503552  1
  O  O8  1  0.295778  0.176711  0.423148  1
  O  O9  1  0.137935  0.009802  0.742514  1
  O  O10  1  0.320754  0.830750  0.054135  1
  O  O11  1  0.169304  0.700290  0.425165  1
  O  O12  1  0.808275  0.701048  0.922911  1
  O  O13  1  0.374398  0.515601  0.755349  1
  O  O14  1  0.626275  0.513381  0.247697  1
  O  O15  1  0.171169  0.317192  0.058898  1
  O  O16  1  0.846483  0.315518  0.556982  1
  O  O17  1  0.697414  0.186226  0.927328  1
  O  O18  1  0.865321  0.023341  0.255912  1
  O  O19  1  0.687105  0.842643  0.562009  1
