# generated using pymatgen
data_LiCrSnO4
_symmetry_space_group_name_H-M   'P 1'
_cell_length_a   6.10440680
_cell_length_b   6.10440680
_cell_length_c   8.54171332
_cell_angle_alpha   90.00000000
_cell_angle_beta   90.00000000
_cell_angle_gamma   90.00000000
_symmetry_Int_Tables_number   1
_chemical_formula_structural   LiCrSnO4
_chemical_formula_sum   'Li4 Cr4 Sn4 O16'
_cell_volume   318.29654631
_cell_formula_units_Z   4
loop_
 _symmetry_equiv_pos_site_id
 _symmetry_equiv_pos_as_xyz
  1  'x, y, z'
loop_
 _atom_site_type_symbol
 _atom_site_label
 _atom_site_symmetry_multiplicity
 _atom_site_fract_x
 _atom_site_fract_y
 _atom_site_fract_z
 _atom_site_occupancy
  Li  Li0  1  0.000000  0.227550  0.000000  1
  Li  Li1  1  0.000000  0.772450  0.500000  1
  Li  Li2  1  0.227550  0.000000  0.250000  1
  Li  Li3  1  0.772450  0.000000  0.750000  1
  Cr  Cr4  1  0.241397  0.500000  0.250000  1
  Cr  Cr5  1  0.500000  0.241397  0.000000  1
  Cr  Cr6  1  0.500000  0.758603  0.500000  1
  Cr  Cr7  1  0.758603  0.500000  0.750000  1
  Sn  Sn8  1  0.254687  0.254687  0.625000  1
  Sn  Sn9  1  0.254687  0.745313  0.875000  1
  Sn  Sn10  1  0.745313  0.254687  0.375000  1
  Sn  Sn11  1  0.745313  0.745313  0.125000  1
  O  O12  1  0.017776  0.263134  0.252552  1
  O  O13  1  0.017776  0.736866  0.247448  1
  O  O14  1  0.263134  0.017776  0.997448  1
  O  O15  1  0.263134  0.982224  0.502552  1
  O  O16  1  0.263176  0.478826  0.013646  1
  O  O17  1  0.263176  0.521174  0.486354  1
  O  O18  1  0.478826  0.263176  0.236354  1
  O  O19  1  0.478826  0.736824  0.263646  1
  O  O20  1  0.521174  0.263176  0.763646  1
  O  O21  1  0.521174  0.736824  0.736354  1
  O  O22  1  0.736824  0.521174  0.513646  1
  O  O23  1  0.736824  0.478826  0.986354  1
  O  O24  1  0.736866  0.017776  0.002552  1
  O  O25  1  0.736866  0.982224  0.497448  1
  O  O26  1  0.982224  0.263134  0.747448  1
  O  O27  1  0.982224  0.736866  0.752552  1
