# generated using pymatgen
data_Li4VCr3O8
_symmetry_space_group_name_H-M   'P 1'
_cell_length_a   5.14755987
_cell_length_b   5.95200772
_cell_length_c   10.28911967
_cell_angle_alpha   89.76496652
_cell_angle_beta   99.69595943
_cell_angle_gamma   106.99927865
_symmetry_Int_Tables_number   1
_chemical_formula_structural   Li4VCr3O8
_chemical_formula_sum   'Li8 V2 Cr6 O16'
_cell_volume   296.82068851
_cell_formula_units_Z   2
loop_
 _symmetry_equiv_pos_site_id
 _symmetry_equiv_pos_as_xyz
  1  'x, y, z'
loop_
 _atom_site_type_symbol
 _atom_site_label
 _atom_site_symmetry_multiplicity
 _atom_site_fract_x
 _atom_site_fract_y
 _atom_site_fract_z
 _atom_site_occupancy
  Li  Li0  1  0.499987  0.250315  0.248896  1
  Li  Li1  1  0.502038  0.251503  0.750648  1
  Li  Li2  1  0.500000  0.000000  0.000000  1
  Li  Li3  1  0.500000  0.000000  0.500000  1
  Li  Li4  1  0.497962  0.748497  0.249352  1
  Li  Li5  1  0.500013  0.749685  0.751104  1
  Li  Li6  1  0.500000  0.500000  0.000000  1
  Li  Li7  1  0.500000  0.500000  0.500000  1
  V  V8  1  0.999750  0.122502  0.376378  1
  V  V9  1  0.000250  0.877498  0.623622  1
  Cr  Cr10  1  0.999800  0.125892  0.874857  1
  Cr  Cr11  1  0.000200  0.874108  0.125143  1
  Cr  Cr12  1  0.000297  0.626074  0.875071  1
  Cr  Cr13  1  0.999616  0.622060  0.374443  1
  Cr  Cr14  1  0.999703  0.373926  0.124929  1
  Cr  Cr15  1  0.000384  0.377940  0.625557  1
  O  O16  1  0.774582  0.066753  0.189536  1
  O  O17  1  0.772739  0.072466  0.689895  1
  O  O18  1  0.224916  0.181561  0.060649  1
  O  O19  1  0.231660  0.187091  0.562249  1
  O  O20  1  0.775084  0.818439  0.939351  1
  O  O21  1  0.225418  0.933247  0.810464  1
  O  O22  1  0.768340  0.812909  0.437751  1
  O  O23  1  0.227261  0.927534  0.310105  1
  O  O24  1  0.774656  0.566673  0.189004  1
  O  O25  1  0.224675  0.681190  0.060350  1
  O  O26  1  0.775135  0.570247  0.689568  1
  O  O27  1  0.227695  0.681046  0.558815  1
  O  O28  1  0.775325  0.318810  0.939650  1
  O  O29  1  0.225344  0.433327  0.810996  1
  O  O30  1  0.772305  0.318954  0.441185  1
  O  O31  1  0.224865  0.429753  0.310432  1
