# generated using pymatgen
data_LiNbNiO4
_symmetry_space_group_name_H-M   'P 1'
_cell_length_a   6.05637634
_cell_length_b   6.05637634
_cell_length_c   8.57296996
_cell_angle_alpha   90.00000000
_cell_angle_beta   90.00000000
_cell_angle_gamma   90.00000000
_symmetry_Int_Tables_number   1
_chemical_formula_structural   LiNbNiO4
_chemical_formula_sum   'Li4 Nb4 Ni4 O16'
_cell_volume   314.45391799
_cell_formula_units_Z   4
loop_
 _symmetry_equiv_pos_site_id
 _symmetry_equiv_pos_as_xyz
  1  'x, y, z'
loop_
 _atom_site_type_symbol
 _atom_site_label
 _atom_site_symmetry_multiplicity
 _atom_site_fract_x
 _atom_site_fract_y
 _atom_site_fract_z
 _atom_site_occupancy
  Li  Li0  1  0.000000  0.233036  0.000000  1
  Li  Li1  1  0.000000  0.766964  0.500000  1
  Li  Li2  1  0.233036  0.000000  0.250000  1
  Li  Li3  1  0.766964  0.000000  0.750000  1
  Nb  Nb4  1  0.255153  0.255153  0.625000  1
  Nb  Nb5  1  0.255153  0.744847  0.875000  1
  Nb  Nb6  1  0.744847  0.255153  0.375000  1
  Nb  Nb7  1  0.744847  0.744847  0.125000  1
  Ni  Ni8  1  0.243655  0.500000  0.250000  1
  Ni  Ni9  1  0.500000  0.243655  0.000000  1
  Ni  Ni10  1  0.500000  0.756345  0.500000  1
  Ni  Ni11  1  0.756345  0.500000  0.750000  1
  O  O12  1  0.001960  0.257497  0.254306  1
  O  O13  1  0.001960  0.742503  0.245694  1
  O  O14  1  0.257497  0.001960  0.995694  1
  O  O15  1  0.257497  0.998040  0.504306  1
  O  O16  1  0.257673  0.493189  0.007258  1
  O  O17  1  0.257673  0.506811  0.492742  1
  O  O18  1  0.493189  0.257673  0.242742  1
  O  O19  1  0.493189  0.742327  0.257258  1
  O  O20  1  0.506811  0.257673  0.757258  1
  O  O21  1  0.506811  0.742327  0.742742  1
  O  O22  1  0.742327  0.506811  0.507258  1
  O  O23  1  0.742327  0.493189  0.992742  1
  O  O24  1  0.742503  0.001960  0.004306  1
  O  O25  1  0.742503  0.998040  0.495694  1
  O  O26  1  0.998040  0.257497  0.745694  1
  O  O27  1  0.998040  0.742503  0.754306  1
