# generated using pymatgen
data_NaTiS2
_symmetry_space_group_name_H-M   'P 1'
_cell_length_a   7.09234548
_cell_length_b   7.09234548
_cell_length_c   7.09234548
_cell_angle_alpha   29.12592818
_cell_angle_beta   29.12592818
_cell_angle_gamma   29.12592818
_symmetry_Int_Tables_number   1
_chemical_formula_structural   NaTiS2
_chemical_formula_sum   'Na1 Ti1 S2'
_cell_volume   74.76855644
_cell_formula_units_Z   1
loop_
 _symmetry_equiv_pos_site_id
 _symmetry_equiv_pos_as_xyz
  1  'x, y, z'
loop_
 _atom_site_type_symbol
 _atom_site_label
 _atom_site_symmetry_multiplicity
 _atom_site_fract_x
 _atom_site_fract_y
 _atom_site_fract_z
 _atom_site_occupancy
  Na  Na0  1  0.166848  0.166848  0.166848  1
  Ti  Ti1  1  0.997641  0.997641  0.997641  1
  S  S2  1  0.594886  0.594886  0.594886  1
  S  S3  1  0.400626  0.400626  0.400626  1
