# generated using pymatgen
data_Ga2HgO4
_symmetry_space_group_name_H-M   'P 1'
_cell_length_a   6.24820946
_cell_length_b   6.24820946
_cell_length_c   6.24820946
_cell_angle_alpha   60.00000000
_cell_angle_beta   60.00000000
_cell_angle_gamma   60.00000000
_symmetry_Int_Tables_number   1
_chemical_formula_structural   Ga2HgO4
_chemical_formula_sum   'Ga4 Hg2 O8'
_cell_volume   172.48516263
_cell_formula_units_Z   2
loop_
 _symmetry_equiv_pos_site_id
 _symmetry_equiv_pos_as_xyz
  1  'x, y, z'
loop_
 _atom_site_type_symbol
 _atom_site_label
 _atom_site_symmetry_multiplicity
 _atom_site_fract_x
 _atom_site_fract_y
 _atom_site_fract_z
 _atom_site_occupancy
  Ga  Ga0  1  0.125000  0.125000  0.125000  1
  Ga  Ga1  1  0.625000  0.125000  0.125000  1
  Ga  Ga2  1  0.125000  0.125000  0.625000  1
  Ga  Ga3  1  0.125000  0.625000  0.125000  1
  Hg  Hg4  1  0.500000  0.500000  0.500000  1
  Hg  Hg5  1  0.750000  0.750000  0.750000  1
  O  O6  1  0.354818  0.935547  0.354818  1
  O  O7  1  0.354818  0.354818  0.935547  1
  O  O8  1  0.895182  0.895182  0.895182  1
  O  O9  1  0.314453  0.895182  0.895182  1
  O  O10  1  0.935547  0.354818  0.354818  1
  O  O11  1  0.354818  0.354818  0.354818  1
  O  O12  1  0.895182  0.895182  0.314453  1
  O  O13  1  0.895182  0.314453  0.895182  1
