# generated using pymatgen
data_Li2Mn(SiO3)2
_symmetry_space_group_name_H-M   'P 1'
_cell_length_a   5.70660023
_cell_length_b   5.70660023
_cell_length_c   9.43730876
_cell_angle_alpha   89.05598282
_cell_angle_beta   90.94401718
_cell_angle_gamma   62.14513794
_symmetry_Int_Tables_number   1
_chemical_formula_structural   Li2Mn(SiO3)2
_chemical_formula_sum   'Li4 Mn2 Si4 O12'
_cell_volume   271.58124101
_cell_formula_units_Z   2
loop_
 _symmetry_equiv_pos_site_id
 _symmetry_equiv_pos_as_xyz
  1  'x, y, z'
loop_
 _atom_site_type_symbol
 _atom_site_label
 _atom_site_symmetry_multiplicity
 _atom_site_fract_x
 _atom_site_fract_y
 _atom_site_fract_z
 _atom_site_occupancy
  Li  Li0  1  0.737836  0.604189  0.881288  1
  Li  Li1  1  0.395811  0.262164  0.381288  1
  Li  Li2  1  0.604189  0.737836  0.618712  1
  Li  Li3  1  0.262164  0.395811  0.118712  1
  Mn  Mn4  1  0.255111  0.255111  0.750000  1
  Mn  Mn5  1  0.744889  0.744889  0.250000  1
  Si  Si6  1  0.802446  0.138908  0.631323  1
  Si  Si7  1  0.861092  0.197554  0.131323  1
  Si  Si8  1  0.138908  0.802446  0.868677  1
  Si  Si9  1  0.197554  0.861092  0.368677  1
  O  O10  1  0.853807  0.373761  0.697983  1
  O  O11  1  0.626239  0.146193  0.197983  1
  O  O12  1  0.497534  0.225544  0.584379  1
  O  O13  1  0.774456  0.502466  0.084379  1
  O  O14  1  0.887148  0.887148  0.750000  1
  O  O15  1  0.000000  0.000000  0.500000  1
  O  O16  1  0.112852  0.112852  0.250000  1
  O  O17  1  0.000000  0.000000  0.000000  1
  O  O18  1  0.225544  0.497534  0.915621  1
  O  O19  1  0.502466  0.774456  0.415621  1
  O  O20  1  0.373761  0.853807  0.802017  1
  O  O21  1  0.146193  0.626239  0.302017  1
