# generated using pymatgen
data_Li8Mn15NiO32
_symmetry_space_group_name_H-M   'P 1'
_cell_length_a   8.37453451
_cell_length_b   8.37453451
_cell_length_c   8.37453451
_cell_angle_alpha   90.21078382
_cell_angle_beta   90.21078382
_cell_angle_gamma   90.21078382
_symmetry_Int_Tables_number   1
_chemical_formula_structural   Li8Mn15NiO32
_chemical_formula_sum   'Li8 Mn15 Ni1 O32'
_cell_volume   587.31783730
_cell_formula_units_Z   1
loop_
 _symmetry_equiv_pos_site_id
 _symmetry_equiv_pos_as_xyz
  1  'x, y, z'
loop_
 _atom_site_type_symbol
 _atom_site_label
 _atom_site_symmetry_multiplicity
 _atom_site_fract_x
 _atom_site_fract_y
 _atom_site_fract_z
 _atom_site_occupancy
  Li  Li0  1  0.374011  0.873537  0.878526  1
  Li  Li1  1  0.126463  0.625989  0.121474  1
  Li  Li2  1  0.625989  0.121474  0.126463  1
  Li  Li3  1  0.873537  0.878526  0.374011  1
  Li  Li4  1  0.376876  0.376876  0.376876  1
  Li  Li5  1  0.623124  0.623124  0.623124  1
  Li  Li6  1  0.121474  0.126463  0.625989  1
  Li  Li7  1  0.878526  0.374011  0.873537  1
  Mn  Mn8  1  0.747771  0.751157  0.995365  1
  Mn  Mn9  1  0.504061  0.495939  0.000000  1
  Mn  Mn10  1  0.248843  0.252229  0.004635  1
  Mn  Mn11  1  0.750560  0.500000  0.249440  1
  Mn  Mn12  1  0.500000  0.756609  0.243391  1
  Mn  Mn13  1  0.004635  0.248843  0.252229  1
  Mn  Mn14  1  0.252229  0.004635  0.248843  1
  Mn  Mn15  1  0.000000  0.504061  0.495939  1
  Mn  Mn16  1  0.249440  0.750560  0.500000  1
  Mn  Mn17  1  0.756609  0.243391  0.500000  1
  Mn  Mn18  1  0.495939  0.000000  0.504061  1
  Mn  Mn19  1  0.995365  0.747771  0.751157  1
  Mn  Mn20  1  0.243391  0.500000  0.756609  1
  Mn  Mn21  1  0.751157  0.995365  0.747771  1
  Mn  Mn22  1  0.500000  0.249440  0.750560  1
  Ni  Ni23  1  0.000000  0.000000  0.000000  1
  O  O24  1  0.977096  0.751238  0.980512  1
  O  O25  1  0.751238  0.980512  0.977096  1
  O  O26  1  0.486099  0.262494  0.988391  1
  O  O27  1  0.273299  0.483610  0.002456  1
  O  O28  1  0.516390  0.726701  0.997544  1
  O  O29  1  0.737506  0.513901  0.011609  1
  O  O30  1  0.019488  0.248762  0.022904  1
  O  O31  1  0.248762  0.022904  0.019488  1
  O  O32  1  0.730953  0.758734  0.223742  1
  O  O33  1  0.516859  0.504332  0.230821  1
  O  O34  1  0.239130  0.239130  0.239130  1
  O  O35  1  0.022904  0.019488  0.248762  1
  O  O36  1  0.776258  0.241266  0.269047  1
  O  O37  1  0.988391  0.486099  0.262494  1
  O  O38  1  0.269047  0.776258  0.241266  1
  O  O39  1  0.483610  0.002456  0.273299  1
  O  O40  1  0.769179  0.495668  0.483141  1
  O  O41  1  0.002456  0.273299  0.483610  1
  O  O42  1  0.262494  0.988391  0.486099  1
  O  O43  1  0.483141  0.769179  0.495668  1
  O  O44  1  0.230821  0.516859  0.504332  1
  O  O45  1  0.011609  0.737506  0.513901  1
  O  O46  1  0.726701  0.997544  0.516390  1
  O  O47  1  0.504332  0.230821  0.516859  1
  O  O48  1  0.997544  0.516390  0.726701  1
  O  O49  1  0.223742  0.730953  0.758734  1
  O  O50  1  0.513901  0.011609  0.737506  1
  O  O51  1  0.758734  0.223742  0.730953  1
  O  O52  1  0.980512  0.977096  0.751238  1
  O  O53  1  0.760870  0.760870  0.760870  1
  O  O54  1  0.495668  0.483141  0.769179  1
  O  O55  1  0.241266  0.269047  0.776258  1
