# generated using pymatgen
data_Mn2O3F
_symmetry_space_group_name_H-M   'P 1'
_cell_length_a   5.78228866
_cell_length_b   6.37038341
_cell_length_c   8.25490326
_cell_angle_alpha   90.00000000
_cell_angle_beta   90.00000000
_cell_angle_gamma   90.00000000
_symmetry_Int_Tables_number   1
_chemical_formula_structural   Mn2O3F
_chemical_formula_sum   'Mn8 O12 F4'
_cell_volume   304.07262844
_cell_formula_units_Z   4
loop_
 _symmetry_equiv_pos_site_id
 _symmetry_equiv_pos_as_xyz
  1  'x, y, z'
loop_
 _atom_site_type_symbol
 _atom_site_label
 _atom_site_symmetry_multiplicity
 _atom_site_fract_x
 _atom_site_fract_y
 _atom_site_fract_z
 _atom_site_occupancy
  Mn  Mn0  1  0.500000  0.000000  0.000000  1
  Mn  Mn1  1  0.500000  0.500000  0.000000  1
  Mn  Mn2  1  0.719021  0.750000  0.247908  1
  Mn  Mn3  1  0.780979  0.250000  0.747908  1
  Mn  Mn4  1  0.000000  0.000000  0.500000  1
  Mn  Mn5  1  0.000000  0.500000  0.500000  1
  Mn  Mn6  1  0.219021  0.750000  0.252092  1
  Mn  Mn7  1  0.280979  0.250000  0.752092  1
  O  O8  1  0.528932  0.048162  0.766450  1
  O  O9  1  0.528932  0.451838  0.766450  1
  O  O10  1  0.697767  0.750000  0.016679  1
  O  O11  1  0.802233  0.250000  0.516679  1
  O  O12  1  0.971068  0.951838  0.266450  1
  O  O13  1  0.971068  0.548162  0.266450  1
  O  O14  1  0.028932  0.048162  0.733550  1
  O  O15  1  0.028932  0.451838  0.733550  1
  O  O16  1  0.197767  0.750000  0.483321  1
  O  O17  1  0.302233  0.250000  0.983321  1
  O  O18  1  0.471068  0.951838  0.233550  1
  O  O19  1  0.471068  0.548162  0.233550  1
  F  F20  1  0.718997  0.750000  0.483785  1
  F  F21  1  0.781003  0.250000  0.983785  1
  F  F22  1  0.218997  0.750000  0.016215  1
  F  F23  1  0.281003  0.250000  0.516215  1
