# generated using pymatgen
data_LiMnCoO4
_symmetry_space_group_name_H-M   'P 1'
_cell_length_a   5.88987868
_cell_length_b   5.88987868
_cell_length_c   5.88987868
_cell_angle_alpha   121.78409730
_cell_angle_beta   121.18919551
_cell_angle_gamma   87.44458707
_symmetry_Int_Tables_number   1
_chemical_formula_structural   LiMnCoO4
_chemical_formula_sum   'Li2 Mn2 Co2 O8'
_cell_volume   141.07472235
_cell_formula_units_Z   2
loop_
 _symmetry_equiv_pos_site_id
 _symmetry_equiv_pos_as_xyz
  1  'x, y, z'
loop_
 _atom_site_type_symbol
 _atom_site_label
 _atom_site_symmetry_multiplicity
 _atom_site_fract_x
 _atom_site_fract_y
 _atom_site_fract_z
 _atom_site_occupancy
  Li  Li0  1  0.384636  0.134636  0.250000  1
  Li  Li1  1  0.615364  0.865364  0.750000  1
  Mn  Mn2  1  0.000000  0.500000  0.500000  1
  Mn  Mn3  1  0.500000  0.500000  0.000000  1
  Co  Co4  1  0.000000  0.500000  0.000000  1
  Co  Co5  1  0.000000  0.000000  0.500000  1
  O  O6  1  0.200570  0.728725  0.471845  1
  O  O7  1  0.756880  0.728725  0.028155  1
  O  O8  1  0.750498  0.723424  0.472926  1
  O  O9  1  0.750498  0.277572  0.027074  1
  O  O10  1  0.249502  0.722428  0.972926  1
  O  O11  1  0.249502  0.276576  0.527074  1
  O  O12  1  0.243120  0.271275  0.971845  1
  O  O13  1  0.799430  0.271275  0.528155  1
