# generated using pymatgen
data_Li2Mn3CrO8
_symmetry_space_group_name_H-M   'P 1'
_cell_length_a   5.80410697
_cell_length_b   5.93607687
_cell_length_c   5.97248203
_cell_angle_alpha   119.41964271
_cell_angle_beta   90.20745392
_cell_angle_gamma   118.96631266
_symmetry_Int_Tables_number   1
_chemical_formula_structural   Li2Mn3CrO8
_chemical_formula_sum   'Li2 Mn3 Cr1 O8'
_cell_volume   148.73357730
_cell_formula_units_Z   1
loop_
 _symmetry_equiv_pos_site_id
 _symmetry_equiv_pos_as_xyz
  1  'x, y, z'
loop_
 _atom_site_type_symbol
 _atom_site_label
 _atom_site_symmetry_multiplicity
 _atom_site_fract_x
 _atom_site_fract_y
 _atom_site_fract_z
 _atom_site_occupancy
  Li  Li0  1  0.000000  0.500000  0.500000  1
  Li  Li1  1  0.500000  0.000000  0.500000  1
  Mn  Mn2  1  0.500000  0.000000  0.000000  1
  Mn  Mn3  1  0.500000  0.500000  0.000000  1
  Mn  Mn4  1  0.000000  0.500000  0.000000  1
  Cr  Cr5  1  0.000000  0.000000  0.000000  1
  O  O6  1  0.720085  0.753904  0.195870  1
  O  O7  1  0.231706  0.753816  0.204071  1
  O  O8  1  0.243665  0.708387  0.772234  1
  O  O9  1  0.761910  0.734890  0.795774  1
  O  O10  1  0.238090  0.265110  0.204226  1
  O  O11  1  0.756335  0.291613  0.227766  1
  O  O12  1  0.768294  0.246184  0.795929  1
  O  O13  1  0.279915  0.246096  0.804130  1
