# generated using pymatgen
data_Li3VO3F
_symmetry_space_group_name_H-M   'P 1'
_cell_length_a   5.16206493
_cell_length_b   7.77289074
_cell_length_c   7.78838031
_cell_angle_alpha   97.88218515
_cell_angle_beta   102.90545232
_cell_angle_gamma   103.10474758
_symmetry_Int_Tables_number   1
_chemical_formula_structural   Li3VO3F
_chemical_formula_sum   'Li12 V4 O12 F4'
_cell_volume   290.81441903
_cell_formula_units_Z   4
loop_
 _symmetry_equiv_pos_site_id
 _symmetry_equiv_pos_as_xyz
  1  'x, y, z'
loop_
 _atom_site_type_symbol
 _atom_site_label
 _atom_site_symmetry_multiplicity
 _atom_site_fract_x
 _atom_site_fract_y
 _atom_site_fract_z
 _atom_site_occupancy
  Li  Li0  1  0.502876  0.370084  0.132894  1
  Li  Li1  1  0.534638  0.126442  0.383543  1
  Li  Li2  1  0.000000  0.500000  0.000000  1
  Li  Li3  1  0.500000  0.500000  0.500000  1
  Li  Li4  1  0.500000  0.000000  0.000000  1
  Li  Li5  1  0.485466  0.734749  0.247901  1
  Li  Li6  1  0.514534  0.265251  0.752099  1
  Li  Li7  1  0.010151  0.616216  0.384387  1
  Li  Li8  1  0.989849  0.383784  0.615613  1
  Li  Li9  1  0.465362  0.873558  0.616457  1
  Li  Li10  1  0.497124  0.629916  0.867106  1
  Li  Li11  1  0.000000  0.000000  0.500000  1
  V  V12  1  0.988357  0.269845  0.240878  1
  V  V13  1  0.026960  0.888408  0.145272  1
  V  V14  1  0.973040  0.111592  0.854728  1
  V  V15  1  0.011643  0.730155  0.759122  1
  O  O16  1  0.770997  0.247996  0.000522  1
  O  O17  1  0.795131  0.015228  0.248107  1
  O  O18  1  0.218026  0.120457  0.109768  1
  O  O19  1  0.762876  0.361284  0.362641  1
  O  O20  1  0.760775  0.126327  0.647798  1
  O  O21  1  0.239963  0.476880  0.248873  1
  O  O22  1  0.760037  0.523120  0.751127  1
  O  O23  1  0.239225  0.873673  0.352202  1
  O  O24  1  0.237124  0.638716  0.637359  1
  O  O25  1  0.781974  0.879543  0.890232  1
  O  O26  1  0.204869  0.984772  0.751893  1
  O  O27  1  0.229003  0.752004  0.999478  1
  F  F28  1  0.748939  0.639429  0.125557  1
  F  F29  1  0.254697  0.254057  0.501573  1
  F  F30  1  0.745303  0.745943  0.498427  1
  F  F31  1  0.251061  0.360571  0.874443  1
