# generated using pymatgen
data_LiCr6O11
_symmetry_space_group_name_H-M   'P 1'
_cell_length_a   5.81369512
_cell_length_b   5.81369512
_cell_length_c   12.93740724
_cell_angle_alpha   90.00000000
_cell_angle_beta   90.00000000
_cell_angle_gamma   120.00000000
_symmetry_Int_Tables_number   1
_chemical_formula_structural   LiCr6O11
_chemical_formula_sum   'Li2 Cr12 O22'
_cell_volume   378.68873593
_cell_formula_units_Z   2
loop_
 _symmetry_equiv_pos_site_id
 _symmetry_equiv_pos_as_xyz
  1  'x, y, z'
loop_
 _atom_site_type_symbol
 _atom_site_label
 _atom_site_symmetry_multiplicity
 _atom_site_fract_x
 _atom_site_fract_y
 _atom_site_fract_z
 _atom_site_occupancy
  Li  Li0  1  0.333333  0.666667  0.259354  1
  Li  Li1  1  0.666667  0.333333  0.759354  1
  Cr  Cr2  1  0.500549  0.001099  0.999350  1
  Cr  Cr3  1  0.333333  0.666667  0.749371  1
  Cr  Cr4  1  0.000000  0.000000  0.144823  1
  Cr  Cr5  1  0.000000  0.000000  0.353881  1
  Cr  Cr6  1  0.000000  0.000000  0.644823  1
  Cr  Cr7  1  0.000000  0.000000  0.853881  1
  Cr  Cr8  1  0.500549  0.499451  0.999350  1
  Cr  Cr9  1  0.998901  0.499451  0.999350  1
  Cr  Cr10  1  0.001099  0.500549  0.499350  1
  Cr  Cr11  1  0.666667  0.333333  0.249371  1
  Cr  Cr12  1  0.499451  0.500549  0.499350  1
  Cr  Cr13  1  0.499451  0.998901  0.499350  1
  O  O14  1  0.695279  0.847640  0.749223  1
  O  O15  1  0.650563  0.825281  0.420211  1
  O  O16  1  0.651819  0.825910  0.077726  1
  O  O17  1  0.333333  0.666667  0.586852  1
  O  O18  1  0.333333  0.666667  0.912023  1
  O  O19  1  0.174719  0.825281  0.420211  1
  O  O20  1  0.152360  0.847640  0.749223  1
  O  O21  1  0.174090  0.825910  0.077726  1
  O  O22  1  0.847640  0.695279  0.249223  1
  O  O23  1  0.174090  0.348181  0.077726  1
  O  O24  1  0.174719  0.349437  0.420211  1
  O  O25  1  0.825281  0.650563  0.920211  1
  O  O26  1  0.825910  0.651819  0.577726  1
  O  O27  1  0.152360  0.304721  0.749223  1
  O  O28  1  0.825281  0.174719  0.920211  1
  O  O29  1  0.666667  0.333333  0.086852  1
  O  O30  1  0.666667  0.333333  0.412023  1
  O  O31  1  0.847640  0.152360  0.249223  1
  O  O32  1  0.825910  0.174090  0.577726  1
  O  O33  1  0.348181  0.174090  0.577726  1
  O  O34  1  0.349437  0.174719  0.920211  1
  O  O35  1  0.304721  0.152360  0.249223  1
