# generated using pymatgen
data_Mn6O7F5
_symmetry_space_group_name_H-M   'P 1'
_cell_length_a   5.55069669
_cell_length_b   5.58062034
_cell_length_c   7.35333895
_cell_angle_alpha   73.82823086
_cell_angle_beta   72.68222112
_cell_angle_gamma   71.24878424
_symmetry_Int_Tables_number   1
_chemical_formula_structural   Mn6O7F5
_chemical_formula_sum   'Mn6 O7 F5'
_cell_volume   201.65697219
_cell_formula_units_Z   1
loop_
 _symmetry_equiv_pos_site_id
 _symmetry_equiv_pos_as_xyz
  1  'x, y, z'
loop_
 _atom_site_type_symbol
 _atom_site_label
 _atom_site_symmetry_multiplicity
 _atom_site_fract_x
 _atom_site_fract_y
 _atom_site_fract_z
 _atom_site_occupancy
  Mn  Mn0  1  0.302098  0.320842  0.161867  1
  Mn  Mn1  1  0.653062  0.674108  0.324023  1
  Mn  Mn2  1  0.370388  0.337454  0.682312  1
  Mn  Mn3  1  0.645813  0.691708  0.835827  1
  Mn  Mn4  1  0.002318  0.023595  0.496158  1
  Mn  Mn5  1  0.009465  0.970743  0.002943  1
  O  O6  1  0.347188  0.981656  0.329477  1
  O  O7  1  0.765097  0.763728  0.037147  1
  O  O8  1  0.226379  0.208744  0.971736  1
  O  O9  1  0.573514  0.578248  0.624023  1
  O  O10  1  0.663179  0.047062  0.664012  1
  O  O11  1  0.961626  0.374036  0.323120  1
  O  O12  1  0.300581  0.667094  0.005059  1
  F  F13  1  0.048545  0.638990  0.668862  1
  F  F14  1  0.129684  0.117006  0.693167  1
  F  F15  1  0.417653  0.425773  0.363048  1
  F  F16  1  0.892869  0.899733  0.308533  1
  F  F17  1  0.690538  0.279476  0.008686  1
