# generated using pymatgen
data_Ba2Ti6N2O11
_symmetry_space_group_name_H-M   'P 1'
_cell_length_a   7.93027021
_cell_length_b   7.93027021
_cell_length_c   9.20173851
_cell_angle_alpha   81.63222209
_cell_angle_beta   98.36777791
_cell_angle_gamma   151.11683505
_symmetry_Int_Tables_number   1
_chemical_formula_structural   Ba2Ti6N2O11
_chemical_formula_sum   'Ba2 Ti6 N2 O11'
_cell_volume   276.34755180
_cell_formula_units_Z   1
loop_
 _symmetry_equiv_pos_site_id
 _symmetry_equiv_pos_as_xyz
  1  'x, y, z'
loop_
 _atom_site_type_symbol
 _atom_site_label
 _atom_site_symmetry_multiplicity
 _atom_site_fract_x
 _atom_site_fract_y
 _atom_site_fract_z
 _atom_site_occupancy
  Ba  Ba0  1  0.547852  0.452148  0.765628  1
  Ba  Ba1  1  0.452148  0.547852  0.234372  1
  Ti  Ti2  1  0.119857  0.880143  0.093250  1
  Ti  Ti3  1  0.175425  0.824575  0.444679  1
  Ti  Ti4  1  0.241884  0.758116  0.763494  1
  Ti  Ti5  1  0.758116  0.241884  0.236506  1
  Ti  Ti6  1  0.824575  0.175425  0.555321  1
  Ti  Ti7  1  0.880143  0.119857  0.906750  1
  N  N8  1  0.704023  0.295977  0.420879  1
  N  N9  1  0.295977  0.704023  0.579121  1
  O  O10  1  0.075832  0.924168  0.287366  1
  O  O11  1  0.127695  0.872305  0.618469  1
  O  O12  1  0.162123  0.837877  0.909413  1
  O  O13  1  0.637874  0.362126  0.108826  1
  O  O14  1  0.757241  0.242759  0.771738  1
  O  O15  1  0.242759  0.757241  0.228262  1
  O  O16  1  0.362126  0.637874  0.891174  1
  O  O17  1  0.837877  0.162123  0.090587  1
  O  O18  1  0.872305  0.127695  0.381531  1
  O  O19  1  0.924168  0.075832  0.712634  1
  O  O20  1  0.000000  0.000000  0.000000  1
