# generated using pymatgen
data_LiFe4(PO4)3
_symmetry_space_group_name_H-M   'P 1'
_cell_length_a   6.09371120
_cell_length_b   9.54416685
_cell_length_c   9.55986414
_cell_angle_alpha   60.11089002
_cell_angle_beta   89.60253563
_cell_angle_gamma   89.39774251
_symmetry_Int_Tables_number   1
_chemical_formula_structural   LiFe4(PO4)3
_chemical_formula_sum   'Li2 Fe8 P6 O24'
_cell_volume   482.01617676
_cell_formula_units_Z   2
loop_
 _symmetry_equiv_pos_site_id
 _symmetry_equiv_pos_as_xyz
  1  'x, y, z'
loop_
 _atom_site_type_symbol
 _atom_site_label
 _atom_site_symmetry_multiplicity
 _atom_site_fract_x
 _atom_site_fract_y
 _atom_site_fract_z
 _atom_site_occupancy
  Li  Li0  1  0.528403  0.667781  0.663114  1
  Li  Li1  1  0.027438  0.330357  0.333340  1
  Fe  Fe2  1  0.746358  0.037784  0.695770  1
  Fe  Fe3  1  0.995444  0.670609  0.667330  1
  Fe  Fe4  1  0.748807  0.696575  0.268464  1
  Fe  Fe5  1  0.751300  0.267526  0.033331  1
  Fe  Fe6  1  0.249281  0.733431  0.962851  1
  Fe  Fe7  1  0.247773  0.302753  0.732851  1
  Fe  Fe8  1  0.494272  0.336554  0.330501  1
  Fe  Fe9  1  0.249877  0.966758  0.302016  1
  P  P10  1  0.250523  0.982577  0.629970  1
  P  P11  1  0.248801  0.384996  0.984099  1
  P  P12  1  0.249237  0.630895  0.387458  1
  P  P13  1  0.748713  0.369637  0.614182  1
  P  P14  1  0.752698  0.612590  0.017705  1
  P  P15  1  0.747469  0.018195  0.368563  1
  O  O16  1  0.448297  0.927995  0.749951  1
  O  O17  1  0.050137  0.934508  0.748452  1
  O  O18  1  0.243699  0.868839  0.554096  1
  O  O19  1  0.758546  0.659665  0.839709  1
  O  O20  1  0.751984  0.840929  0.500843  1
  O  O21  1  0.230100  0.573860  0.871560  1
  O  O22  1  0.050859  0.750732  0.313578  1
  O  O23  1  0.448226  0.749100  0.323452  1
  O  O24  1  0.754036  0.501009  0.659997  1
  O  O25  1  0.234387  0.556248  0.576358  1
  O  O26  1  0.057543  0.307021  0.937627  1
  O  O27  1  0.453111  0.324793  0.928920  1
  O  O28  1  0.551662  0.683448  0.065452  1
  O  O29  1  0.949472  0.678605  0.071188  1
  O  O30  1  0.732267  0.445408  0.425516  1
  O  O31  1  0.258221  0.498543  0.342597  1
  O  O32  1  0.951269  0.252441  0.674638  1
  O  O33  1  0.554627  0.247143  0.691256  1
  O  O34  1  0.744967  0.423519  0.129793  1
  O  O35  1  0.255656  0.159211  0.499624  1
  O  O36  1  0.251262  0.339153  0.160998  1
  O  O37  1  0.731262  0.132666  0.443352  1
  O  O38  1  0.949251  0.070834  0.252355  1
  O  O39  1  0.552764  0.065212  0.247143  1
