# generated using pymatgen
data_Li4V2SiO8
_symmetry_space_group_name_H-M   'P 1'
_cell_length_a   8.27377000
_cell_length_b   10.93360325
_cell_length_c   8.27910168
_cell_angle_alpha   90.00000000
_cell_angle_beta   103.09791044
_cell_angle_gamma   90.00000000
_symmetry_Int_Tables_number   1
_chemical_formula_structural   Li4V2SiO8
_chemical_formula_sum   'Li16 V8 Si4 O32'
_cell_volume   729.46069682
_cell_formula_units_Z   4
loop_
 _symmetry_equiv_pos_site_id
 _symmetry_equiv_pos_as_xyz
  1  'x, y, z'
loop_
 _atom_site_type_symbol
 _atom_site_label
 _atom_site_symmetry_multiplicity
 _atom_site_fract_x
 _atom_site_fract_y
 _atom_site_fract_z
 _atom_site_occupancy
  Li  Li0  1  0.600500  0.668864  0.596311  1
  Li  Li1  1  0.662921  0.166262  0.662509  1
  Li  Li2  1  0.143351  0.336774  0.657279  1
  Li  Li3  1  0.464755  0.421621  0.718996  1
  Li  Li4  1  0.535245  0.921621  0.781004  1
  Li  Li5  1  0.856649  0.836774  0.842721  1
  Li  Li6  1  0.337079  0.666262  0.837491  1
  Li  Li7  1  0.399500  0.168864  0.903689  1
  Li  Li8  1  0.600500  0.831136  0.096311  1
  Li  Li9  1  0.662921  0.333738  0.162509  1
  Li  Li10  1  0.143351  0.163226  0.157279  1
  Li  Li11  1  0.464755  0.078379  0.218996  1
  Li  Li12  1  0.535245  0.578379  0.281004  1
  Li  Li13  1  0.856649  0.663226  0.342721  1
  Li  Li14  1  0.337079  0.833738  0.337491  1
  Li  Li15  1  0.399500  0.331136  0.403689  1
  V  V16  1  0.764368  0.410670  0.541864  1
  V  V17  1  0.287804  0.086950  0.530956  1
  V  V18  1  0.712196  0.586950  0.969044  1
  V  V19  1  0.764368  0.089330  0.041864  1
  V  V20  1  0.235632  0.910670  0.958136  1
  V  V21  1  0.287804  0.413050  0.030956  1
  V  V22  1  0.712196  0.913050  0.469044  1
  V  V23  1  0.235632  0.589330  0.458136  1
  Si  Si24  1  0.089731  0.834127  0.586249  1
  Si  Si25  1  0.910269  0.334127  0.913751  1
  Si  Si26  1  0.089731  0.665873  0.086249  1
  Si  Si27  1  0.910269  0.165873  0.413751  1
  O  O28  1  0.779357  0.081351  0.491412  1
  O  O29  1  0.596823  0.333883  0.590672  1
  O  O30  1  0.942132  0.385792  0.736252  1
  O  O31  1  0.258141  0.436881  0.520502  1
  O  O32  1  0.664893  0.842814  0.642454  1
  O  O33  1  0.091209  0.172810  0.548605  1
  O  O34  1  0.168998  0.695301  0.616872  1
  O  O35  1  0.454472  0.088487  0.707948  1
  O  O36  1  0.545528  0.588487  0.792052  1
  O  O37  1  0.831002  0.195301  0.883128  1
  O  O38  1  0.908791  0.672810  0.951395  1
  O  O39  1  0.335107  0.342814  0.857546  1
  O  O40  1  0.741859  0.936881  0.979498  1
  O  O41  1  0.057868  0.885792  0.763748  1
  O  O42  1  0.779357  0.418649  0.991412  1
  O  O43  1  0.403177  0.833883  0.909328  1
  O  O44  1  0.596823  0.166117  0.090672  1
  O  O45  1  0.220643  0.581351  0.008588  1
  O  O46  1  0.942132  0.114208  0.236252  1
  O  O47  1  0.258141  0.063119  0.020502  1
  O  O48  1  0.664893  0.657186  0.142454  1
  O  O49  1  0.091209  0.327190  0.048605  1
  O  O50  1  0.168998  0.804699  0.116872  1
  O  O51  1  0.454472  0.411513  0.207948  1
  O  O52  1  0.545528  0.911513  0.292052  1
  O  O53  1  0.831002  0.304699  0.383128  1
  O  O54  1  0.908791  0.827190  0.451395  1
  O  O55  1  0.335107  0.157186  0.357546  1
  O  O56  1  0.741859  0.563119  0.479498  1
  O  O57  1  0.057868  0.614208  0.263748  1
  O  O58  1  0.403177  0.666117  0.409328  1
  O  O59  1  0.220643  0.918649  0.508588  1
