# generated using pymatgen
data_Mn3Co(PO4)4
_symmetry_space_group_name_H-M   'P 1'
_cell_length_a   4.89583217
_cell_length_b   6.02442550
_cell_length_c   9.82057692
_cell_angle_alpha   90.00000000
_cell_angle_beta   90.22768884
_cell_angle_gamma   90.00000000
_symmetry_Int_Tables_number   1
_chemical_formula_structural   Mn3Co(PO4)4
_chemical_formula_sum   'Mn3 Co1 P4 O16'
_cell_volume   289.65146672
_cell_formula_units_Z   1
loop_
 _symmetry_equiv_pos_site_id
 _symmetry_equiv_pos_as_xyz
  1  'x, y, z'
loop_
 _atom_site_type_symbol
 _atom_site_label
 _atom_site_symmetry_multiplicity
 _atom_site_fract_x
 _atom_site_fract_y
 _atom_site_fract_z
 _atom_site_occupancy
  Mn  Mn0  1  0.432771  0.000000  0.214474  1
  Mn  Mn1  1  0.558941  0.500000  0.779584  1
  Mn  Mn2  1  0.934199  0.500000  0.285618  1
  Co  Co3  1  0.033216  0.000000  0.724530  1
  P  P4  1  0.088107  0.500000  0.601729  1
  P  P5  1  0.418323  0.500000  0.099072  1
  P  P6  1  0.581009  0.000000  0.900072  1
  P  P7  1  0.919112  0.000000  0.400242  1
  O  O8  1  0.147105  0.500000  0.447300  1
  O  O9  1  0.229678  0.297714  0.671231  1
  O  O10  1  0.229678  0.702286  0.671231  1
  O  O11  1  0.230189  0.000000  0.380432  1
  O  O12  1  0.270198  0.000000  0.878035  1
  O  O13  1  0.275041  0.300095  0.170627  1
  O  O14  1  0.275041  0.699905  0.170627  1
  O  O15  1  0.355207  0.500000  0.945551  1
  O  O16  1  0.648261  0.000000  0.052892  1
  O  O17  1  0.729789  0.801395  0.828417  1
  O  O18  1  0.729789  0.198605  0.828417  1
  O  O19  1  0.730146  0.500000  0.119086  1
  O  O20  1  0.773568  0.500000  0.618219  1
  O  O21  1  0.774938  0.800387  0.328873  1
  O  O22  1  0.774938  0.199613  0.328873  1
  O  O23  1  0.860757  0.000000  0.554866  1
