# generated using pymatgen
data_LiMn2(BO3)2
_symmetry_space_group_name_H-M   'P 1'
_cell_length_a   5.79127256
_cell_length_b   9.16134575
_cell_length_c   12.45248149
_cell_angle_alpha   104.79112603
_cell_angle_beta   88.06312923
_cell_angle_gamma   103.95542741
_symmetry_Int_Tables_number   1
_chemical_formula_structural   LiMn2(BO3)2
_chemical_formula_sum   'Li5 Mn10 B10 O30'
_cell_volume   619.65794942
_cell_formula_units_Z   5
loop_
 _symmetry_equiv_pos_site_id
 _symmetry_equiv_pos_as_xyz
  1  'x, y, z'
loop_
 _atom_site_type_symbol
 _atom_site_label
 _atom_site_symmetry_multiplicity
 _atom_site_fract_x
 _atom_site_fract_y
 _atom_site_fract_z
 _atom_site_occupancy
  Li  Li0  1  0.035885  0.661993  0.708306  1
  Li  Li1  1  0.168712  0.944469  0.500118  1
  Li  Li2  1  0.765489  0.745581  0.097939  1
  Li  Li3  1  0.557900  0.143978  0.898554  1
  Li  Li4  1  0.962526  0.343114  0.297087  1
  Mn  Mn5  1  0.166718  0.562410  0.913325  1
  Mn  Mn6  1  0.247483  0.622037  0.497008  1
  Mn  Mn7  1  0.033545  0.027940  0.289803  1
  Mn  Mn8  1  0.560524  0.767260  0.314354  1
  Mn  Mn9  1  0.354198  0.167388  0.109268  1
  Mn  Mn10  1  0.630296  0.823266  0.885630  1
  Mn  Mn11  1  0.441961  0.255677  0.696334  1
  Mn  Mn12  1  0.961958  0.994130  0.714940  1
  Mn  Mn13  1  0.748393  0.366920  0.506484  1
  Mn  Mn14  1  0.842007  0.428029  0.095367  1
  B  B15  1  0.039214  0.685171  0.291345  1
  B  B16  1  0.161889  0.906577  0.904076  1
  B  B17  1  0.432345  0.900301  0.690368  1
  B  B18  1  0.226927  0.277843  0.484465  1
  B  B19  1  0.372091  0.511496  0.110486  1
  B  B20  1  0.640268  0.484760  0.895746  1
  B  B21  1  0.775283  0.712588  0.517357  1
  B  B22  1  0.563836  0.108987  0.305949  1
  B  B23  1  0.832558  0.081739  0.085696  1
  B  B24  1  0.962501  0.327739  0.711243  1
  O  O25  1  0.020374  0.482456  0.754942  1
  O  O26  1  0.204773  0.749158  0.381249  1
  O  O27  1  0.997633  0.149068  0.176373  1
  O  O28  1  0.330697  0.003149  0.656113  1
  O  O29  1  0.124925  0.379810  0.446723  1
  O  O30  1  0.288469  0.801460  0.920596  1
  O  O31  1  0.100638  0.230924  0.731769  1
  O  O32  1  0.166266  0.445783  0.041072  1
  O  O33  1  0.355162  0.741878  0.650214  1
  O  O34  1  0.159579  0.120020  0.443464  1
  O  O35  1  0.451021  0.666106  0.151060  1
  O  O36  1  0.237192  0.060996  0.945806  1
  O  O37  1  0.605741  0.958602  0.778021  1
  O  O38  1  0.398437  0.340833  0.569916  1
  O  O39  1  0.525512  0.584937  0.866773  1
  O  O40  1  0.499319  0.405566  0.125531  1
  O  O41  1  0.574784  0.646746  0.444569  1
  O  O42  1  0.357210  0.045344  0.237128  1
  O  O43  1  0.776636  0.924538  0.041596  1
  O  O44  1  0.577339  0.327062  0.849349  1
  O  O45  1  0.853442  0.867297  0.555779  1
  O  O46  1  0.642982  0.264324  0.345264  1
  O  O47  1  0.815891  0.548892  0.980824  1
  O  O48  1  0.931447  0.782776  0.252501  1
  O  O49  1  0.726166  0.181357  0.048637  1
  O  O50  1  0.901743  0.609024  0.542579  1
  O  O51  1  0.692908  0.005068  0.322958  1
  O  O52  1  0.962240  0.840298  0.827711  1
  O  O53  1  0.762474  0.256318  0.639361  1
  O  O54  1  0.977958  0.526772  0.248796  1
