# generated using pymatgen
data_Na2LiMnPCO7
_symmetry_space_group_name_H-M   'P 1'
_cell_length_a   8.88558249
_cell_length_b   6.78714483
_cell_length_c   10.26288729
_cell_angle_alpha   90.00000000
_cell_angle_beta   90.52009353
_cell_angle_gamma   90.00000000
_symmetry_Int_Tables_number   1
_chemical_formula_structural   Na2LiMnPCO7
_chemical_formula_sum   'Na8 Li4 Mn4 P4 C4 O28'
_cell_volume   618.90599059
_cell_formula_units_Z   4
loop_
 _symmetry_equiv_pos_site_id
 _symmetry_equiv_pos_as_xyz
  1  'x, y, z'
loop_
 _atom_site_type_symbol
 _atom_site_label
 _atom_site_symmetry_multiplicity
 _atom_site_fract_x
 _atom_site_fract_y
 _atom_site_fract_z
 _atom_site_occupancy
  Na  Na0  1  0.083558  0.501352  0.120657  1
  Na  Na1  1  0.083558  0.498648  0.620657  1
  Na  Na2  1  0.255451  0.248934  0.375182  1
  Na  Na3  1  0.255451  0.751066  0.875182  1
  Na  Na4  1  0.743654  0.751437  0.123575  1
  Na  Na5  1  0.743242  0.248253  0.124007  1
  Na  Na6  1  0.743242  0.751747  0.624007  1
  Na  Na7  1  0.743654  0.248563  0.623575  1
  Li  Li8  1  0.270437  0.733580  0.382252  1
  Li  Li9  1  0.270437  0.266420  0.882252  1
  Li  Li10  1  0.914449  0.992599  0.373567  1
  Li  Li11  1  0.914449  0.007401  0.873567  1
  Mn  Mn12  1  0.359978  0.001703  0.110878  1
  Mn  Mn13  1  0.359978  0.998297  0.610878  1
  Mn  Mn14  1  0.639728  0.499079  0.387998  1
  Mn  Mn15  1  0.639728  0.500921  0.887998  1
  P  P16  1  0.408938  0.504598  0.146611  1
  P  P17  1  0.408938  0.495402  0.646611  1
  P  P18  1  0.590710  0.995079  0.350885  1
  P  P19  1  0.590710  0.004921  0.850885  1
  C  C20  1  0.053156  0.999015  0.134902  1
  C  C21  1  0.053156  0.000985  0.634902  1
  C  C22  1  0.944839  0.508334  0.368386  1
  C  C23  1  0.944839  0.491666  0.868386  1
  O  O24  1  0.090486  0.525123  0.359352  1
  O  O25  1  0.090486  0.474877  0.859352  1
  O  O26  1  0.092511  0.999024  0.013140  1
  O  O27  1  0.092511  0.000976  0.513140  1
  O  O28  1  0.154639  0.998351  0.227654  1
  O  O29  1  0.154639  0.001649  0.727654  1
  O  O30  1  0.316799  0.319528  0.104476  1
  O  O31  1  0.318104  0.686927  0.100064  1
  O  O32  1  0.318104  0.313073  0.600064  1
  O  O33  1  0.316799  0.680472  0.604476  1
  O  O34  1  0.422687  0.511990  0.299196  1
  O  O35  1  0.430179  0.981689  0.410733  1
  O  O36  1  0.422687  0.488010  0.799196  1
  O  O37  1  0.430179  0.018311  0.910733  1
  O  O38  1  0.569701  0.499783  0.089237  1
  O  O39  1  0.571508  0.998804  0.199762  1
  O  O40  1  0.569701  0.500217  0.589237  1
  O  O41  1  0.571508  0.001196  0.699762  1
  O  O42  1  0.691955  0.816915  0.390441  1
  O  O43  1  0.679809  0.181735  0.394029  1
  O  O44  1  0.679809  0.818265  0.894029  1
  O  O45  1  0.691955  0.183085  0.890441  1
  O  O46  1  0.860856  0.498874  0.263864  1
  O  O47  1  0.860856  0.501126  0.763864  1
  O  O48  1  0.880626  0.499724  0.481418  1
  O  O49  1  0.880626  0.500276  0.981418  1
  O  O50  1  0.912000  0.000030  0.167730  1
  O  O51  1  0.912000  0.999970  0.667730  1
