# generated using pymatgen
data_LiMnF3
_symmetry_space_group_name_H-M   'P 1'
_cell_length_a   5.32355875
_cell_length_b   5.32355875
_cell_length_c   15.38592212
_cell_angle_alpha   90.00000000
_cell_angle_beta   90.00000000
_cell_angle_gamma   120.00000000
_symmetry_Int_Tables_number   1
_chemical_formula_structural   LiMnF3
_chemical_formula_sum   'Li6 Mn6 F18'
_cell_volume   377.62284823
_cell_formula_units_Z   6
loop_
 _symmetry_equiv_pos_site_id
 _symmetry_equiv_pos_as_xyz
  1  'x, y, z'
loop_
 _atom_site_type_symbol
 _atom_site_label
 _atom_site_symmetry_multiplicity
 _atom_site_fract_x
 _atom_site_fract_y
 _atom_site_fract_z
 _atom_site_occupancy
  Li  Li0  1  0.000000  0.000000  0.829985  1
  Li  Li1  1  0.666667  0.333333  0.554757  1
  Li  Li2  1  0.000000  0.000000  0.676126  1
  Li  Li3  1  0.000000  0.000000  0.323874  1
  Li  Li4  1  0.333333  0.666667  0.445243  1
  Li  Li5  1  0.000000  0.000000  0.170015  1
  Mn  Mn6  1  0.666667  0.333333  0.317328  1
  Mn  Mn7  1  0.666667  0.333333  0.840732  1
  Mn  Mn8  1  0.333333  0.666667  0.159268  1
  Mn  Mn9  1  0.000000  0.000000  0.500000  1
  Mn  Mn10  1  0.000000  0.000000  0.000000  1
  Mn  Mn11  1  0.333333  0.666667  0.682672  1
  F  F12  1  0.982556  0.316567  0.419597  1
  F  F13  1  0.986464  0.306950  0.738985  1
  F  F14  1  0.722102  0.029497  0.902205  1
  F  F15  1  0.679514  0.986464  0.261015  1
  F  F16  1  0.970503  0.692605  0.902205  1
  F  F17  1  0.683433  0.665989  0.419597  1
  F  F18  1  0.320486  0.013536  0.738985  1
  F  F19  1  0.692605  0.722102  0.097795  1
  F  F20  1  0.334011  0.017444  0.419597  1
  F  F21  1  0.693050  0.679514  0.738985  1
  F  F22  1  0.306950  0.320486  0.261015  1
  F  F23  1  0.665989  0.982556  0.580403  1
  F  F24  1  0.307395  0.277898  0.902205  1
  F  F25  1  0.316567  0.334011  0.580403  1
  F  F26  1  0.029497  0.307395  0.097795  1
  F  F27  1  0.277898  0.970503  0.097795  1
  F  F28  1  0.013536  0.693050  0.261015  1
  F  F29  1  0.017444  0.683433  0.580403  1
