# generated using pymatgen
data_Tb2(WO4)3
_symmetry_space_group_name_H-M   'P 1'
_cell_length_a   6.95846461
_cell_length_b   6.95846461
_cell_length_c   11.44850095
_cell_angle_alpha   79.13326798
_cell_angle_beta   100.86673202
_cell_angle_gamma   68.02683947
_symmetry_Int_Tables_number   1
_chemical_formula_structural   Tb2(WO4)3
_chemical_formula_sum   'Tb4 W6 O24'
_cell_volume   483.99675734
_cell_formula_units_Z   2
loop_
 _symmetry_equiv_pos_site_id
 _symmetry_equiv_pos_as_xyz
  1  'x, y, z'
loop_
 _atom_site_type_symbol
 _atom_site_label
 _atom_site_symmetry_multiplicity
 _atom_site_fract_x
 _atom_site_fract_y
 _atom_site_fract_z
 _atom_site_occupancy
  Tb  Tb0  1  0.711173  0.041220  0.905887  1
  Tb  Tb1  1  0.958780  0.288827  0.405887  1
  Tb  Tb2  1  0.041220  0.711173  0.594113  1
  Tb  Tb3  1  0.288827  0.958780  0.094113  1
  W  W4  1  0.540747  0.245654  0.548163  1
  W  W5  1  0.754346  0.459253  0.048163  1
  W  W6  1  0.131879  0.131879  0.750000  1
  W  W7  1  0.868121  0.868121  0.250000  1
  W  W8  1  0.245654  0.540747  0.951837  1
  W  W9  1  0.459253  0.754346  0.451837  1
  O  O10  1  0.547728  0.093939  0.699352  1
  O  O11  1  0.868364  0.210468  0.777684  1
  O  O12  1  0.080510  0.339371  0.606818  1
  O  O13  1  0.768855  0.667049  0.937164  1
  O  O14  1  0.817031  0.078839  0.536500  1
  O  O15  1  0.528032  0.393835  0.925371  1
  O  O16  1  0.906061  0.452272  0.199352  1
  O  O17  1  0.393835  0.528032  0.574629  1
  O  O18  1  0.078839  0.817031  0.963500  1
  O  O19  1  0.667049  0.768855  0.562836  1
  O  O20  1  0.339371  0.080510  0.893182  1
  O  O21  1  0.789532  0.131636  0.277684  1
  O  O22  1  0.210468  0.868364  0.722316  1
  O  O23  1  0.660629  0.919490  0.106818  1
  O  O24  1  0.332951  0.231145  0.437164  1
  O  O25  1  0.921161  0.182969  0.036500  1
  O  O26  1  0.606164  0.471968  0.425371  1
  O  O27  1  0.093939  0.547728  0.800648  1
  O  O28  1  0.471968  0.606164  0.074629  1
  O  O29  1  0.182969  0.921161  0.463500  1
  O  O30  1  0.231145  0.332951  0.062836  1
  O  O31  1  0.919490  0.660629  0.393182  1
  O  O32  1  0.131636  0.789532  0.222316  1
  O  O33  1  0.452272  0.906061  0.300648  1
