# generated using pymatgen
data_MnCo3(PO4)4
_symmetry_space_group_name_H-M   'P 1'
_cell_length_a   4.83762731
_cell_length_b   5.94123173
_cell_length_c   10.90411089
_cell_angle_alpha   90.00000000
_cell_angle_beta   116.38347461
_cell_angle_gamma   90.00000000
_symmetry_Int_Tables_number   1
_chemical_formula_structural   MnCo3(PO4)4
_chemical_formula_sum   'Mn1 Co3 P4 O16'
_cell_volume   280.75635312
_cell_formula_units_Z   1
loop_
 _symmetry_equiv_pos_site_id
 _symmetry_equiv_pos_as_xyz
  1  'x, y, z'
loop_
 _atom_site_type_symbol
 _atom_site_label
 _atom_site_symmetry_multiplicity
 _atom_site_fract_x
 _atom_site_fract_y
 _atom_site_fract_z
 _atom_site_occupancy
  Mn  Mn0  1  0.650905  0.000000  0.716620  1
  Co  Co1  1  0.303750  0.500000  0.270897  1
  Co  Co2  1  0.215826  0.500000  0.785971  1
  Co  Co3  1  0.762229  0.000000  0.228983  1
  P  P4  1  0.493227  0.000000  0.401294  1
  P  P5  1  0.321479  0.000000  0.903024  1
  P  P6  1  0.688458  0.500000  0.096767  1
  P  P7  1  0.510328  0.500000  0.599517  1
  O  O8  1  0.708673  0.000000  0.555656  1
  O  O9  1  0.570346  0.202858  0.330397  1
  O  O10  1  0.570346  0.797142  0.330397  1
  O  O11  1  0.845185  0.500000  0.619824  1
  O  O12  1  0.397012  0.500000  0.120258  1
  O  O13  1  0.101103  0.203642  0.829545  1
  O  O14  1  0.101103  0.796358  0.829545  1
  O  O15  1  0.411680  0.000000  0.057099  1
  O  O16  1  0.599327  0.500000  0.942781  1
  O  O17  1  0.908735  0.703004  0.168215  1
  O  O18  1  0.908735  0.296996  0.168215  1
  O  O19  1  0.615477  0.000000  0.883295  1
  O  O20  1  0.155209  0.000000  0.378840  1
  O  O21  1  0.430178  0.702130  0.669702  1
  O  O22  1  0.430178  0.297870  0.669702  1
  O  O23  1  0.300511  0.500000  0.443453  1
