# generated using pymatgen
data_LiV2O4
_symmetry_space_group_name_H-M   'P 1'
_cell_length_a   5.00783012
_cell_length_b   3.05832862
_cell_length_c   5.22930485
_cell_angle_alpha   90.00000000
_cell_angle_beta   108.21038431
_cell_angle_gamma   90.00000000
_symmetry_Int_Tables_number   1
_chemical_formula_structural   LiV2O4
_chemical_formula_sum   'Li1 V2 O4'
_cell_volume   76.07862204
_cell_formula_units_Z   1
loop_
 _symmetry_equiv_pos_site_id
 _symmetry_equiv_pos_as_xyz
  1  'x, y, z'
loop_
 _atom_site_type_symbol
 _atom_site_label
 _atom_site_symmetry_multiplicity
 _atom_site_fract_x
 _atom_site_fract_y
 _atom_site_fract_z
 _atom_site_occupancy
  Li  Li0  1  0.000000  0.500000  0.500000  1
  V  V1  1  0.500000  0.500000  0.000000  1
  V  V2  1  0.000000  0.000000  0.000000  1
  O  O3  1  0.246051  0.500000  0.204240  1
  O  O4  1  0.753949  0.500000  0.795760  1
  O  O5  1  0.737015  0.000000  0.215114  1
  O  O6  1  0.262985  0.000000  0.784886  1
