# generated using pymatgen
data_Li3CuSbO5
_symmetry_space_group_name_H-M   'P 1'
_cell_length_a   5.20225849
_cell_length_b   5.46285930
_cell_length_c   7.83672918
_cell_angle_alpha   104.80175514
_cell_angle_beta   102.88895205
_cell_angle_gamma   103.74834351
_symmetry_Int_Tables_number   1
_chemical_formula_structural   Li3CuSbO5
_chemical_formula_sum   'Li6 Cu2 Sb2 O10'
_cell_volume   199.37629189
_cell_formula_units_Z   2
loop_
 _symmetry_equiv_pos_site_id
 _symmetry_equiv_pos_as_xyz
  1  'x, y, z'
loop_
 _atom_site_type_symbol
 _atom_site_label
 _atom_site_symmetry_multiplicity
 _atom_site_fract_x
 _atom_site_fract_y
 _atom_site_fract_z
 _atom_site_occupancy
  Li  Li0  1  0.224936  0.891389  0.375763  1
  Li  Li1  1  0.418055  0.297731  0.811907  1
  Li  Li2  1  0.498082  0.488568  0.492431  1
  Li  Li3  1  0.290953  0.106984  0.100438  1
  Li  Li4  1  0.589770  0.703589  0.197304  1
  Li  Li5  1  0.776855  0.104797  0.610949  1
  Cu  Cu6  1  0.006871  0.500536  0.002491  1
  Cu  Cu7  1  0.706362  0.895710  0.903415  1
  Sb  Sb8  1  0.106638  0.699510  0.701562  1
  Sb  Sb9  1  0.888238  0.296042  0.295508  1
  O  O10  1  0.049727  0.037455  0.826872  1
  O  O11  1  0.343226  0.682508  0.938389  1
  O  O12  1  0.144624  0.339480  0.549228  1
  O  O13  1  0.221723  0.506636  0.242141  1
  O  O14  1  0.456113  0.889143  0.667819  1
  O  O15  1  0.560249  0.112210  0.349328  1
  O  O16  1  0.791132  0.480393  0.759542  1
  O  O17  1  0.866277  0.664486  0.450047  1
  O  O18  1  0.669315  0.341028  0.069173  1
  O  O19  1  0.935792  0.953964  0.162133  1
