# generated using pymatgen
data_Li3Cr(CuO2)4
_symmetry_space_group_name_H-M   'P 1'
_cell_length_a   6.15493506
_cell_length_b   6.15493506
_cell_length_c   5.60309531
_cell_angle_alpha   64.84768168
_cell_angle_beta   115.15231832
_cell_angle_gamma   125.26832873
_symmetry_Int_Tables_number   1
_chemical_formula_structural   Li3Cr(CuO2)4
_chemical_formula_sum   'Li3 Cr1 Cu4 O8'
_cell_volume   152.16795233
_cell_formula_units_Z   1
loop_
 _symmetry_equiv_pos_site_id
 _symmetry_equiv_pos_as_xyz
  1  'x, y, z'
loop_
 _atom_site_type_symbol
 _atom_site_label
 _atom_site_symmetry_multiplicity
 _atom_site_fract_x
 _atom_site_fract_y
 _atom_site_fract_z
 _atom_site_occupancy
  Li  Li0  1  0.500000  0.000000  0.000000  1
  Li  Li1  1  0.000000  0.000000  0.500000  1
  Li  Li2  1  0.000000  0.500000  0.000000  1
  Cr  Cr3  1  0.500000  0.500000  0.000000  1
  Cu  Cu4  1  0.500000  0.500000  0.500000  1
  Cu  Cu5  1  0.000000  0.000000  0.000000  1
  Cu  Cu6  1  0.500000  1.000000  0.500000  1
  Cu  Cu7  1  0.000000  0.500000  0.500000  1
  O  O8  1  0.711627  0.288373  0.246557  1
  O  O9  1  0.296084  0.231891  0.769358  1
  O  O10  1  0.768109  0.703916  0.769358  1
  O  O11  1  0.200577  0.799423  0.239384  1
  O  O12  1  0.799423  0.200577  0.760616  1
  O  O13  1  0.231891  0.296084  0.230642  1
  O  O14  1  0.703916  0.768109  0.230642  1
  O  O15  1  0.288373  0.711627  0.753443  1
