# generated using pymatgen
data_Ti2(SO4)3
_symmetry_space_group_name_H-M   'P 1'
_cell_length_a   8.66975153
_cell_length_b   8.71369004
_cell_length_c   14.78120687
_cell_angle_alpha   90.00000000
_cell_angle_beta   125.41554626
_cell_angle_gamma   90.00000000
_symmetry_Int_Tables_number   1
_chemical_formula_structural   Ti2(SO4)3
_chemical_formula_sum   'Ti8 S12 O48'
_cell_volume   910.04022403
_cell_formula_units_Z   4
loop_
 _symmetry_equiv_pos_site_id
 _symmetry_equiv_pos_as_xyz
  1  'x, y, z'
loop_
 _atom_site_type_symbol
 _atom_site_label
 _atom_site_symmetry_multiplicity
 _atom_site_fract_x
 _atom_site_fract_y
 _atom_site_fract_z
 _atom_site_occupancy
  Ti  Ti0  1  0.630121  0.462429  0.381790  1
  Ti  Ti1  1  0.369879  0.962429  0.118210  1
  Ti  Ti2  1  0.134385  0.538168  0.883477  1
  Ti  Ti3  1  0.865615  0.038168  0.616523  1
  Ti  Ti4  1  0.134385  0.961832  0.383477  1
  Ti  Ti5  1  0.865615  0.461832  0.116523  1
  Ti  Ti6  1  0.630121  0.037571  0.881790  1
  Ti  Ti7  1  0.369879  0.537571  0.618210  1
  S  S8  1  0.539522  0.752473  0.503907  1
  S  S9  1  0.249784  0.612928  0.148531  1
  S  S10  1  0.957506  0.892111  0.854098  1
  S  S11  1  0.750216  0.112928  0.351469  1
  S  S12  1  0.042494  0.392111  0.645902  1
  S  S13  1  0.460478  0.252473  0.996093  1
  S  S14  1  0.539522  0.747527  0.003907  1
  S  S15  1  0.957506  0.607889  0.354098  1
  S  S16  1  0.249784  0.887072  0.648531  1
  S  S17  1  0.042494  0.107889  0.145902  1
  S  S18  1  0.750216  0.387072  0.851469  1
  S  S19  1  0.460478  0.247527  0.496093  1
  O  O20  1  0.618130  0.138658  0.565830  1
  O  O21  1  0.208157  0.110665  0.140480  1
  O  O22  1  0.477735  0.315305  0.409932  1
  O  O23  1  0.900990  0.414930  0.835266  1
  O  O24  1  0.531317  0.633212  0.430982  1
  O  O25  1  0.308474  0.775922  0.177345  1
  O  O26  1  0.177040  0.582730  0.031604  1
  O  O27  1  0.923240  0.005314  0.769685  1
  O  O28  1  0.982556  0.736623  0.823395  1
  O  O29  1  0.722781  0.833551  0.560137  1
  O  O30  1  0.130607  0.938262  0.962110  1
  O  O31  1  0.410643  0.507774  0.220348  1
  O  O32  1  0.589357  0.007774  0.279652  1
  O  O33  1  0.869393  0.438262  0.537890  1
  O  O34  1  0.277219  0.333551  0.939863  1
  O  O35  1  0.017444  0.236623  0.676605  1
  O  O36  1  0.822960  0.082730  0.468396  1
  O  O37  1  0.076760  0.505314  0.730315  1
  O  O38  1  0.691526  0.275922  0.322655  1
  O  O39  1  0.468683  0.133212  0.069018  1
  O  O40  1  0.522265  0.815305  0.090068  1
  O  O41  1  0.791843  0.610665  0.359520  1
  O  O42  1  0.099010  0.914930  0.664734  1
  O  O43  1  0.381870  0.638658  0.934170  1
  O  O44  1  0.618130  0.361342  0.065830  1
  O  O45  1  0.900990  0.085070  0.335266  1
  O  O46  1  0.208157  0.389335  0.640480  1
  O  O47  1  0.477735  0.184695  0.909932  1
  O  O48  1  0.531317  0.866788  0.930982  1
  O  O49  1  0.308474  0.724078  0.677345  1
  O  O50  1  0.923240  0.494686  0.269685  1
  O  O51  1  0.177040  0.917270  0.531604  1
  O  O52  1  0.982556  0.763377  0.323395  1
  O  O53  1  0.722781  0.666449  0.060137  1
  O  O54  1  0.130607  0.561738  0.462110  1
  O  O55  1  0.410643  0.992226  0.720348  1
  O  O56  1  0.589357  0.492226  0.779652  1
  O  O57  1  0.869393  0.061738  0.037890  1
  O  O58  1  0.277219  0.166449  0.439863  1
  O  O59  1  0.017444  0.263377  0.176605  1
  O  O60  1  0.076760  0.994686  0.230315  1
  O  O61  1  0.822960  0.417270  0.968396  1
  O  O62  1  0.691526  0.224078  0.822655  1
  O  O63  1  0.468683  0.366788  0.569018  1
  O  O64  1  0.099010  0.585070  0.164734  1
  O  O65  1  0.522265  0.684695  0.590068  1
  O  O66  1  0.791843  0.889335  0.859520  1
  O  O67  1  0.381870  0.861342  0.434170  1
