# generated using pymatgen
data_Li8MnFe7(BO3)8
_symmetry_space_group_name_H-M   'P 1'
_cell_length_a   5.24527415
_cell_length_b   9.05695039
_cell_length_c   11.53061303
_cell_angle_alpha   112.59035203
_cell_angle_beta   102.45953168
_cell_angle_gamma   89.68765943
_symmetry_Int_Tables_number   1
_chemical_formula_structural   Li8MnFe7(BO3)8
_chemical_formula_sum   'Li8 Mn1 Fe7 B8 O24'
_cell_volume   492.01166434
_cell_formula_units_Z   1
loop_
 _symmetry_equiv_pos_site_id
 _symmetry_equiv_pos_as_xyz
  1  'x, y, z'
loop_
 _atom_site_type_symbol
 _atom_site_label
 _atom_site_symmetry_multiplicity
 _atom_site_fract_x
 _atom_site_fract_y
 _atom_site_fract_z
 _atom_site_occupancy
  Li  Li0  1  0.029792  0.039726  0.415649  1
  Li  Li1  1  0.294057  0.285527  0.915848  1
  Li  Li2  1  0.485198  0.506447  0.667096  1
  Li  Li3  1  0.269272  0.248506  0.168532  1
  Li  Li4  1  0.524174  0.537489  0.414040  1
  Li  Li5  1  0.795094  0.781860  0.915373  1
  Li  Li6  1  0.984316  0.006450  0.666074  1
  Li  Li7  1  0.765592  0.745915  0.164833  1
  Mn  Mn8  1  0.276420  0.939275  0.884595  1
  Fe  Fe9  1  0.012435  0.356851  0.381206  1
  Fe  Fe10  1  0.475729  0.156662  0.631475  1
  Fe  Fe11  1  0.245391  0.567514  0.132513  1
  Fe  Fe12  1  0.524140  0.852751  0.383148  1
  Fe  Fe13  1  0.779870  0.431375  0.880238  1
  Fe  Fe14  1  0.750392  0.068585  0.135160  1
  Fe  Fe15  1  0.975278  0.655014  0.632122  1
  B  B16  1  0.019017  0.685863  0.375642  1
  B  B17  1  0.266317  0.602151  0.875305  1
  B  B18  1  0.237604  0.897359  0.128936  1
  B  B19  1  0.474788  0.813772  0.625064  1
  B  B20  1  0.518841  0.183981  0.376593  1
  B  B21  1  0.768862  0.105380  0.877191  1
  B  B22  1  0.735208  0.397316  0.126858  1
  B  B23  1  0.977234  0.313252  0.624717  1
  O  O24  1  0.022811  0.109761  0.862570  1
  O  O25  1  0.100659  0.710259  0.844229  1
  O  O26  1  0.166997  0.493412  0.916928  1
  O  O27  1  0.088445  0.170504  0.614596  1
  O  O28  1  0.102650  0.424882  0.594606  1
  O  O29  1  0.238476  0.841864  0.663402  1
  O  O30  1  0.265128  0.660233  0.347377  1
  O  O31  1  0.522010  0.602709  0.862994  1
  O  O32  1  0.599563  0.212944  0.847036  1
  O  O33  1  0.402566  0.080382  0.416640  1
  O  O34  1  0.390892  0.312207  0.361758  1
  O  O35  1  0.678978  0.994529  0.918925  1
  O  O36  1  0.345067  0.015523  0.099522  1
  O  O37  1  0.585964  0.669542  0.612837  1
  O  O38  1  0.598982  0.926441  0.596393  1
  O  O39  1  0.396054  0.792186  0.166131  1
  O  O40  1  0.465977  0.380419  0.115484  1
  O  O41  1  0.741488  0.343125  0.663159  1
  O  O42  1  0.766988  0.158036  0.348296  1
  O  O43  1  0.901082  0.580299  0.414592  1
  O  O44  1  0.892158  0.814931  0.363224  1
  O  O45  1  0.840425  0.515192  0.097172  1
  O  O46  1  0.896930  0.293598  0.165211  1
  O  O47  1  0.967889  0.881206  0.116313  1
