# generated using pymatgen
data_Na5LiFe2P2(CO7)2
_symmetry_space_group_name_H-M   'P 1'
_cell_length_a   8.98739078
_cell_length_b   6.60764794
_cell_length_c   10.38563941
_cell_angle_alpha   90.00000000
_cell_angle_beta   91.06316134
_cell_angle_gamma   90.00000000
_symmetry_Int_Tables_number   1
_chemical_formula_structural   Na5LiFe2P2(CO7)2
_chemical_formula_sum   'Na10 Li2 Fe4 P4 C4 O28'
_cell_volume   616.65036128
_cell_formula_units_Z   2
loop_
 _symmetry_equiv_pos_site_id
 _symmetry_equiv_pos_as_xyz
  1  'x, y, z'
loop_
 _atom_site_type_symbol
 _atom_site_label
 _atom_site_symmetry_multiplicity
 _atom_site_fract_x
 _atom_site_fract_y
 _atom_site_fract_z
 _atom_site_occupancy
  Na  Na0  1  0.082500  0.249994  0.370620  1
  Na  Na1  1  0.083293  0.252208  0.868951  1
  Na  Na2  1  0.259737  0.001952  0.625286  1
  Na  Na3  1  0.261050  0.000582  0.125357  1
  Na  Na4  1  0.260820  0.498730  0.125504  1
  Na  Na5  1  0.740263  0.501952  0.374714  1
  Na  Na6  1  0.738950  0.500582  0.874643  1
  Na  Na7  1  0.739180  0.998730  0.874496  1
  Na  Na8  1  0.917500  0.749994  0.629380  1
  Na  Na9  1  0.916707  0.752208  0.131049  1
  Li  Li10  1  0.269877  0.495859  0.627938  1
  Li  Li11  1  0.730123  0.995859  0.372062  1
  Fe  Fe12  1  0.355301  0.749335  0.358699  1
  Fe  Fe13  1  0.354713  0.748006  0.855931  1
  Fe  Fe14  1  0.644699  0.249335  0.641301  1
  Fe  Fe15  1  0.645287  0.248006  0.144069  1
  P  P16  1  0.414780  0.249046  0.401863  1
  P  P17  1  0.413617  0.249263  0.898379  1
  P  P18  1  0.585220  0.749046  0.598137  1
  P  P19  1  0.586383  0.749263  0.101621  1
  C  C20  1  0.056481  0.753752  0.385090  1
  C  C21  1  0.059933  0.749342  0.883514  1
  C  C22  1  0.943519  0.253752  0.614910  1
  C  C23  1  0.940067  0.249342  0.116486  1
  O  O24  1  0.087410  0.268012  0.608336  1
  O  O25  1  0.083505  0.249823  0.108809  1
  O  O26  1  0.120395  0.749588  0.273355  1
  O  O27  1  0.122854  0.749122  0.771525  1
  O  O28  1  0.139378  0.743387  0.489143  1
  O  O29  1  0.143122  0.748959  0.987487  1
  O  O30  1  0.317893  0.061618  0.362306  1
  O  O31  1  0.324753  0.436905  0.353182  1
  O  O32  1  0.318986  0.060576  0.857525  1
  O  O33  1  0.318210  0.436070  0.854635  1
  O  O34  1  0.428073  0.261427  0.552019  1
  O  O35  1  0.428340  0.736155  0.656626  1
  O  O36  1  0.433265  0.250733  0.048006  1
  O  O37  1  0.432846  0.749560  0.164426  1
  O  O38  1  0.571660  0.236155  0.343374  1
  O  O39  1  0.571927  0.761427  0.447981  1
  O  O40  1  0.567154  0.249560  0.835574  1
  O  O41  1  0.566735  0.750733  0.951994  1
  O  O42  1  0.682107  0.561618  0.637694  1
  O  O43  1  0.675247  0.936905  0.646818  1
  O  O44  1  0.681014  0.560576  0.142475  1
  O  O45  1  0.681790  0.936070  0.145365  1
  O  O46  1  0.860622  0.243387  0.510857  1
  O  O47  1  0.856878  0.248959  0.012513  1
  O  O48  1  0.879605  0.249588  0.726645  1
  O  O49  1  0.877146  0.249122  0.228475  1
  O  O50  1  0.912590  0.768012  0.391664  1
  O  O51  1  0.916495  0.749823  0.891191  1
