# generated using pymatgen
data_Li2V5B3O13
_symmetry_space_group_name_H-M   'P 1'
_cell_length_a   9.61664909
_cell_length_b   3.23444844
_cell_length_c   15.12135326
_cell_angle_alpha   90.00000000
_cell_angle_beta   106.46637902
_cell_angle_gamma   90.00000000
_symmetry_Int_Tables_number   1
_chemical_formula_structural   Li2V5B3O13
_chemical_formula_sum   'Li4 V10 B6 O26'
_cell_volume   451.05243481
_cell_formula_units_Z   2
loop_
 _symmetry_equiv_pos_site_id
 _symmetry_equiv_pos_as_xyz
  1  'x, y, z'
loop_
 _atom_site_type_symbol
 _atom_site_label
 _atom_site_symmetry_multiplicity
 _atom_site_fract_x
 _atom_site_fract_y
 _atom_site_fract_z
 _atom_site_occupancy
  Li  Li0  1  0.772974  0.750000  0.760446  1
  Li  Li1  1  0.883459  0.250000  0.945911  1
  Li  Li2  1  0.116541  0.750000  0.054089  1
  Li  Li3  1  0.227026  0.250000  0.239554  1
  V  V4  1  0.641344  0.750000  0.003162  1
  V  V5  1  0.540721  0.750000  0.365889  1
  V  V6  1  0.688955  0.250000  0.203908  1
  V  V7  1  0.857918  0.250000  0.435724  1
  V  V8  1  0.978177  0.250000  0.687449  1
  V  V9  1  0.021823  0.750000  0.312551  1
  V  V10  1  0.142082  0.750000  0.564276  1
  V  V11  1  0.311045  0.750000  0.796092  1
  V  V12  1  0.459279  0.250000  0.634111  1
  V  V13  1  0.358656  0.250000  0.996838  1
  B  B14  1  0.587405  0.250000  0.818579  1
  B  B15  1  0.705742  0.750000  0.573733  1
  B  B16  1  0.091738  0.250000  0.883231  1
  B  B17  1  0.908262  0.750000  0.116769  1
  B  B18  1  0.294258  0.250000  0.426267  1
  B  B19  1  0.412595  0.750000  0.181421  1
  O  O20  1  0.665891  0.250000  0.910072  1
  O  O21  1  0.569399  0.750000  0.586095  1
  O  O22  1  0.649139  0.250000  0.747881  1
  O  O23  1  0.563362  0.750000  0.212049  1
  O  O24  1  0.657622  0.250000  0.344440  1
  O  O25  1  0.727099  0.750000  0.486292  1
  O  O26  1  0.830145  0.750000  0.649779  1
  O  O27  1  0.574604  0.250000  0.064381  1
  O  O28  1  0.955532  0.250000  0.822013  1
  O  O29  1  0.120290  0.250000  0.977507  1
  O  O30  1  0.781759  0.750000  0.144588  1
  O  O31  1  0.887827  0.250000  0.294074  1
  O  O32  1  0.010764  0.250000  0.565551  1
  O  O33  1  0.989236  0.750000  0.434449  1
  O  O34  1  0.112173  0.750000  0.705926  1
  O  O35  1  0.218241  0.250000  0.855412  1
  O  O36  1  0.879710  0.750000  0.022493  1
  O  O37  1  0.044468  0.750000  0.177987  1
  O  O38  1  0.425396  0.750000  0.935619  1
  O  O39  1  0.169855  0.250000  0.350221  1
  O  O40  1  0.272901  0.250000  0.513708  1
  O  O41  1  0.342378  0.750000  0.655560  1
  O  O42  1  0.436638  0.250000  0.787951  1
  O  O43  1  0.350861  0.750000  0.252119  1
  O  O44  1  0.430601  0.250000  0.413905  1
  O  O45  1  0.334109  0.750000  0.089928  1
