# generated using pymatgen
data_LiPWO5
_symmetry_space_group_name_H-M   'P 1'
_cell_length_a   6.65924608
_cell_length_b   7.54117836
_cell_length_c   7.61360027
_cell_angle_alpha   90.00000000
_cell_angle_beta   90.00000000
_cell_angle_gamma   90.00000000
_symmetry_Int_Tables_number   1
_chemical_formula_structural   LiPWO5
_chemical_formula_sum   'Li4 P4 W4 O20'
_cell_volume   382.34406049
_cell_formula_units_Z   4
loop_
 _symmetry_equiv_pos_site_id
 _symmetry_equiv_pos_as_xyz
  1  'x, y, z'
loop_
 _atom_site_type_symbol
 _atom_site_label
 _atom_site_symmetry_multiplicity
 _atom_site_fract_x
 _atom_site_fract_y
 _atom_site_fract_z
 _atom_site_occupancy
  Li  Li0  1  0.000000  0.000000  0.000000  1
  Li  Li1  1  0.500000  0.000000  0.000000  1
  Li  Li2  1  0.000000  0.500000  0.500000  1
  Li  Li3  1  0.500000  0.500000  0.500000  1
  P  P4  1  0.250000  0.875039  0.630041  1
  P  P5  1  0.750000  0.624961  0.130041  1
  P  P6  1  0.250000  0.375039  0.869959  1
  P  P7  1  0.750000  0.124961  0.369959  1
  W  W8  1  0.750000  0.855546  0.729532  1
  W  W9  1  0.250000  0.644454  0.229532  1
  W  W10  1  0.750000  0.355546  0.770468  1
  W  W11  1  0.250000  0.144454  0.270468  1
  O  O12  1  0.750000  0.952107  0.475766  1
  O  O13  1  0.250000  0.899692  0.175484  1
  O  O14  1  0.065213  0.869288  0.753817  1
  O  O15  1  0.434787  0.869288  0.753817  1
  O  O16  1  0.750000  0.793028  0.009148  1
  O  O17  1  0.250000  0.706972  0.509148  1
  O  O18  1  0.934787  0.630712  0.253817  1
  O  O19  1  0.565213  0.630712  0.253817  1
  O  O20  1  0.750000  0.600308  0.675484  1
  O  O21  1  0.250000  0.547893  0.975766  1
  O  O22  1  0.750000  0.452107  0.024234  1
  O  O23  1  0.250000  0.399692  0.324516  1
  O  O24  1  0.434787  0.369288  0.746183  1
  O  O25  1  0.065213  0.369288  0.746183  1
  O  O26  1  0.750000  0.293028  0.490852  1
  O  O27  1  0.250000  0.206972  0.990852  1
  O  O28  1  0.934787  0.130712  0.246183  1
  O  O29  1  0.565213  0.130712  0.246183  1
  O  O30  1  0.750000  0.100308  0.824516  1
  O  O31  1  0.250000  0.047893  0.524234  1
