# generated using pymatgen
data_Li5V4O8
_symmetry_space_group_name_H-M   'P 1'
_cell_length_a   6.04261067
_cell_length_b   6.04261067
_cell_length_c   6.04261067
_cell_angle_alpha   60.37562984
_cell_angle_beta   60.37562984
_cell_angle_gamma   60.37562984
_symmetry_Int_Tables_number   1
_chemical_formula_structural   Li5V4O8
_chemical_formula_sum   'Li5 V4 O8'
_cell_volume   157.33779094
_cell_formula_units_Z   1
loop_
 _symmetry_equiv_pos_site_id
 _symmetry_equiv_pos_as_xyz
  1  'x, y, z'
loop_
 _atom_site_type_symbol
 _atom_site_label
 _atom_site_symmetry_multiplicity
 _atom_site_fract_x
 _atom_site_fract_y
 _atom_site_fract_z
 _atom_site_occupancy
  Li  Li0  1  0.019483  0.433822  0.019483  1
  Li  Li1  1  0.018632  0.018632  0.018632  1
  Li  Li2  1  0.019483  0.019483  0.433822  1
  Li  Li3  1  0.875845  0.875845  0.875845  1
  Li  Li4  1  0.433822  0.019483  0.019483  1
  V  V5  1  0.499339  0.499339  0.999755  1
  V  V6  1  0.499339  0.999755  0.499339  1
  V  V7  1  0.999755  0.499339  0.499339  1
  V  V8  1  0.500805  0.500805  0.500805  1
  O  O9  1  0.250728  0.730364  0.250728  1
  O  O10  1  0.730364  0.250728  0.250728  1
  O  O11  1  0.251788  0.251788  0.251788  1
  O  O12  1  0.250728  0.250728  0.730364  1
  O  O13  1  0.747944  0.747944  0.747944  1
  O  O14  1  0.751329  0.751329  0.267472  1
  O  O15  1  0.267472  0.751329  0.751329  1
  O  O16  1  0.751329  0.267472  0.751329  1
