# generated using pymatgen
data_Li3Cr2FeO6
_symmetry_space_group_name_H-M   'P 1'
_cell_length_a   6.65206571
_cell_length_b   6.65206571
_cell_length_c   5.94907511
_cell_angle_alpha   76.99326602
_cell_angle_beta   103.00673398
_cell_angle_gamma   154.18162051
_symmetry_Int_Tables_number   1
_chemical_formula_structural   Li3Cr2FeO6
_chemical_formula_sum   'Li3 Cr2 Fe1 O6'
_cell_volume   111.55091350
_cell_formula_units_Z   1
loop_
 _symmetry_equiv_pos_site_id
 _symmetry_equiv_pos_as_xyz
  1  'x, y, z'
loop_
 _atom_site_type_symbol
 _atom_site_label
 _atom_site_symmetry_multiplicity
 _atom_site_fract_x
 _atom_site_fract_y
 _atom_site_fract_z
 _atom_site_occupancy
  Li  Li0  1  0.000000  0.000000  0.000000  1
  Li  Li1  1  0.332853  0.667147  0.666543  1
  Li  Li2  1  0.667147  0.332853  0.333457  1
  Cr  Cr3  1  0.333050  0.666950  0.166219  1
  Cr  Cr4  1  0.666950  0.333050  0.833781  1
  Fe  Fe5  1  0.000000  0.000000  0.500000  1
  O  O6  1  0.837831  0.162169  0.401872  1
  O  O7  1  0.172773  0.827227  0.068777  1
  O  O8  1  0.162169  0.837831  0.598128  1
  O  O9  1  0.505289  0.494711  0.739399  1
  O  O10  1  0.494711  0.505289  0.260601  1
  O  O11  1  0.827227  0.172773  0.931223  1
