# generated using pymatgen
data_Mn2FeO3
_symmetry_space_group_name_H-M   'P 1'
_cell_length_a   5.51536892
_cell_length_b   3.18549257
_cell_length_c   7.70895205
_cell_angle_alpha   90.00000000
_cell_angle_beta   90.17529361
_cell_angle_gamma   90.00000000
_symmetry_Int_Tables_number   1
_chemical_formula_structural   Mn2FeO3
_chemical_formula_sum   'Mn4 Fe2 O6'
_cell_volume   135.43923006
_cell_formula_units_Z   2
loop_
 _symmetry_equiv_pos_site_id
 _symmetry_equiv_pos_as_xyz
  1  'x, y, z'
loop_
 _atom_site_type_symbol
 _atom_site_label
 _atom_site_symmetry_multiplicity
 _atom_site_fract_x
 _atom_site_fract_y
 _atom_site_fract_z
 _atom_site_occupancy
  Mn  Mn0  1  0.670142  0.000000  0.335253  1
  Mn  Mn1  1  0.329858  0.000000  0.664747  1
  Mn  Mn2  1  0.500000  0.500000  0.000000  1
  Mn  Mn3  1  0.000000  0.000000  0.000000  1
  Fe  Fe4  1  0.168142  0.500000  0.334599  1
  Fe  Fe5  1  0.831858  0.500000  0.665401  1
  O  O6  1  0.332787  0.000000  0.172376  1
  O  O7  1  0.836961  0.500000  0.168490  1
  O  O8  1  0.163039  0.500000  0.831510  1
  O  O9  1  0.500000  0.500000  0.500000  1
  O  O10  1  0.000000  0.000000  0.500000  1
  O  O11  1  0.667213  0.000000  0.827624  1
