# generated using pymatgen
data_LiMn(CO3)2
_symmetry_space_group_name_H-M   'P 1'
_cell_length_a   7.32034694
_cell_length_b   9.79309927
_cell_length_c   9.00128070
_cell_angle_alpha   90.00000000
_cell_angle_beta   119.99442968
_cell_angle_gamma   90.00000000
_symmetry_Int_Tables_number   1
_chemical_formula_structural   LiMn(CO3)2
_chemical_formula_sum   'Li4 Mn4 C8 O24'
_cell_volume   558.87043119
_cell_formula_units_Z   4
loop_
 _symmetry_equiv_pos_site_id
 _symmetry_equiv_pos_as_xyz
  1  'x, y, z'
loop_
 _atom_site_type_symbol
 _atom_site_label
 _atom_site_symmetry_multiplicity
 _atom_site_fract_x
 _atom_site_fract_y
 _atom_site_fract_z
 _atom_site_occupancy
  Li  Li0  1  0.666585  0.902259  0.657815  1
  Li  Li1  1  0.666585  0.597741  0.157815  1
  Li  Li2  1  0.333415  0.402259  0.842185  1
  Li  Li3  1  0.333415  0.097741  0.342185  1
  Mn  Mn4  1  0.478054  0.636161  0.432627  1
  Mn  Mn5  1  0.521946  0.136161  0.067373  1
  Mn  Mn6  1  0.478054  0.863839  0.932627  1
  Mn  Mn7  1  0.521946  0.363839  0.567373  1
  C  C8  1  0.522512  0.891885  0.272113  1
  C  C9  1  0.477488  0.391885  0.227887  1
  C  C10  1  0.901809  0.513730  0.640988  1
  C  C11  1  0.098191  0.013730  0.859012  1
  C  C12  1  0.901809  0.986270  0.140988  1
  C  C13  1  0.098191  0.486270  0.359012  1
  C  C14  1  0.522512  0.608115  0.772113  1
  C  C15  1  0.477488  0.108115  0.727887  1
  O  O16  1  0.524219  0.847327  0.406765  1
  O  O17  1  0.469566  0.523607  0.243874  1
  O  O18  1  0.488778  0.306106  0.341733  1
  O  O19  1  0.511222  0.806106  0.158267  1
  O  O20  1  0.530434  0.023607  0.256126  1
  O  O21  1  0.475781  0.347327  0.093235  1
  O  O22  1  0.901861  0.023239  0.786128  1
  O  O23  1  0.783727  0.617895  0.553519  1
  O  O24  1  0.816842  0.398413  0.653799  1
  O  O25  1  0.183158  0.898413  0.846201  1
  O  O26  1  0.216273  0.117895  0.946481  1
  O  O27  1  0.901861  0.476761  0.286128  1
  O  O28  1  0.098139  0.523239  0.713872  1
  O  O29  1  0.783727  0.882105  0.053519  1
  O  O30  1  0.816842  0.101587  0.153799  1
  O  O31  1  0.183158  0.601587  0.346201  1
  O  O32  1  0.216273  0.382105  0.446481  1
  O  O33  1  0.098139  0.976761  0.213872  1
  O  O34  1  0.524219  0.652673  0.906765  1
  O  O35  1  0.469566  0.976393  0.743874  1
  O  O36  1  0.488778  0.193894  0.841733  1
  O  O37  1  0.511222  0.693894  0.658267  1
  O  O38  1  0.530434  0.476393  0.756126  1
  O  O39  1  0.475781  0.152673  0.593235  1
