# generated using pymatgen
data_Ga2WO6
_symmetry_space_group_name_H-M   'P 1'
_cell_length_a   7.22948851
_cell_length_b   4.80289539
_cell_length_c   11.51840644
_cell_angle_alpha   90.00000000
_cell_angle_beta   93.90576539
_cell_angle_gamma   90.00000000
_symmetry_Int_Tables_number   1
_chemical_formula_structural   Ga2WO6
_chemical_formula_sum   'Ga8 W4 O24'
_cell_volume   399.01869662
_cell_formula_units_Z   4
loop_
 _symmetry_equiv_pos_site_id
 _symmetry_equiv_pos_as_xyz
  1  'x, y, z'
loop_
 _atom_site_type_symbol
 _atom_site_label
 _atom_site_symmetry_multiplicity
 _atom_site_fract_x
 _atom_site_fract_y
 _atom_site_fract_z
 _atom_site_occupancy
  Ga  Ga0  1  0.000000  0.789706  0.750000  1
  Ga  Ga1  1  0.000000  0.210294  0.250000  1
  Ga  Ga2  1  0.242893  0.241938  0.618321  1
  Ga  Ga3  1  0.242893  0.758062  0.118321  1
  Ga  Ga4  1  0.500000  0.712166  0.750000  1
  Ga  Ga5  1  0.500000  0.287834  0.250000  1
  Ga  Ga6  1  0.757107  0.241938  0.881679  1
  Ga  Ga7  1  0.757107  0.758062  0.381679  1
  W  W8  1  0.256259  0.266449  0.895861  1
  W  W9  1  0.256259  0.733551  0.395861  1
  W  W10  1  0.743741  0.266449  0.604139  1
  W  W11  1  0.743741  0.733551  0.104139  1
  O  O12  1  0.012882  0.071847  0.870657  1
  O  O13  1  0.167455  0.563779  0.972756  1
  O  O14  1  0.012882  0.928153  0.370657  1
  O  O15  1  0.187643  0.507931  0.740492  1
  O  O16  1  0.167455  0.436221  0.472756  1
  O  O17  1  0.316593  0.003727  0.762197  1
  O  O18  1  0.187643  0.492069  0.240492  1
  O  O19  1  0.330221  0.943877  0.521074  1
  O  O20  1  0.502825  0.436705  0.873394  1
  O  O21  1  0.316593  0.996273  0.262197  1
  O  O22  1  0.497175  0.436705  0.626606  1
  O  O23  1  0.669779  0.943877  0.978926  1
  O  O24  1  0.330221  0.056123  0.021074  1
  O  O25  1  0.502825  0.563295  0.373394  1
  O  O26  1  0.683407  0.003727  0.737803  1
  O  O27  1  0.497175  0.563295  0.126606  1
  O  O28  1  0.669779  0.056123  0.478926  1
  O  O29  1  0.812357  0.507931  0.759508  1
  O  O30  1  0.683407  0.996273  0.237803  1
  O  O31  1  0.832545  0.563779  0.527244  1
  O  O32  1  0.812357  0.492069  0.259508  1
  O  O33  1  0.987118  0.071847  0.629343  1
  O  O34  1  0.832545  0.436221  0.027244  1
  O  O35  1  0.987118  0.928153  0.129343  1
