# generated using pymatgen
data_Fe4OF6
_symmetry_space_group_name_H-M   'P 1'
_cell_length_a   7.12117845
_cell_length_b   7.12117845
_cell_length_c   5.16527896
_cell_angle_alpha   90.00000000
_cell_angle_beta   90.00000000
_cell_angle_gamma   90.00000000
_symmetry_Int_Tables_number   1
_chemical_formula_structural   Fe4OF6
_chemical_formula_sum   'Fe8 O2 F12'
_cell_volume   261.93740417
_cell_formula_units_Z   2
loop_
 _symmetry_equiv_pos_site_id
 _symmetry_equiv_pos_as_xyz
  1  'x, y, z'
loop_
 _atom_site_type_symbol
 _atom_site_label
 _atom_site_symmetry_multiplicity
 _atom_site_fract_x
 _atom_site_fract_y
 _atom_site_fract_z
 _atom_site_occupancy
  Fe  Fe0  1  0.000000  0.252230  0.304569  1
  Fe  Fe1  1  0.247770  0.500000  0.804569  1
  Fe  Fe2  1  0.752230  0.500000  0.804569  1
  Fe  Fe3  1  0.000000  0.747770  0.304569  1
  Fe  Fe4  1  0.500000  0.752230  0.195431  1
  Fe  Fe5  1  0.252230  0.000000  0.695431  1
  Fe  Fe6  1  0.747770  0.000000  0.695431  1
  Fe  Fe7  1  0.500000  0.247770  0.195431  1
  O  O8  1  0.500000  0.500000  0.000000  1
  O  O9  1  0.000000  0.000000  0.500000  1
  F  F10  1  0.707239  0.292761  0.500000  1
  F  F11  1  0.292761  0.292761  0.500000  1
  F  F12  1  0.000000  0.500000  0.572582  1
  F  F13  1  0.000000  0.500000  0.072582  1
  F  F14  1  0.292761  0.707239  0.500000  1
  F  F15  1  0.707239  0.707239  0.500000  1
  F  F16  1  0.792761  0.792761  0.000000  1
  F  F17  1  0.207239  0.792761  0.000000  1
  F  F18  1  0.500000  0.000000  0.927418  1
  F  F19  1  0.500000  0.000000  0.427418  1
  F  F20  1  0.792761  0.207239  0.000000  1
  F  F21  1  0.207239  0.207239  0.000000  1
