# generated using pymatgen
data_TlGaO3
_symmetry_space_group_name_H-M   'P 1'
_cell_length_a   5.35239106
_cell_length_b   5.49830494
_cell_length_c   7.87435007
_cell_angle_alpha   90.00000000
_cell_angle_beta   90.00000000
_cell_angle_gamma   90.00000000
_symmetry_Int_Tables_number   1
_chemical_formula_structural   TlGaO3
_chemical_formula_sum   'Tl4 Ga4 O12'
_cell_volume   231.73486403
_cell_formula_units_Z   4
loop_
 _symmetry_equiv_pos_site_id
 _symmetry_equiv_pos_as_xyz
  1  'x, y, z'
loop_
 _atom_site_type_symbol
 _atom_site_label
 _atom_site_symmetry_multiplicity
 _atom_site_fract_x
 _atom_site_fract_y
 _atom_site_fract_z
 _atom_site_occupancy
  Tl  Tl0  1  0.018201  0.949571  0.750000  1
  Tl  Tl1  1  0.481799  0.449571  0.750000  1
  Tl  Tl2  1  0.518201  0.550429  0.250000  1
  Tl  Tl3  1  0.981799  0.050429  0.250000  1
  Ga  Ga4  1  0.000000  0.500000  0.000000  1
  Ga  Ga5  1  0.000000  0.500000  0.500000  1
  Ga  Ga6  1  0.500000  0.000000  0.000000  1
  Ga  Ga7  1  0.500000  0.000000  0.500000  1
  O  O8  1  0.111977  0.454149  0.250000  1
  O  O9  1  0.200839  0.202669  0.560452  1
  O  O10  1  0.200839  0.202669  0.939548  1
  O  O11  1  0.299161  0.702669  0.560452  1
  O  O12  1  0.299161  0.702669  0.939548  1
  O  O13  1  0.388023  0.954149  0.250000  1
  O  O14  1  0.611977  0.045851  0.750000  1
  O  O15  1  0.700839  0.297331  0.060452  1
  O  O16  1  0.700839  0.297331  0.439548  1
  O  O17  1  0.799161  0.797331  0.060452  1
  O  O18  1  0.799161  0.797331  0.439548  1
  O  O19  1  0.888023  0.545851  0.750000  1
