# generated using pymatgen
data_LiP2WO7
_symmetry_space_group_name_H-M   'P 1'
_cell_length_a   5.46579959
_cell_length_b   5.46579959
_cell_length_c   4.58253883
_cell_angle_alpha   82.18325954
_cell_angle_beta   97.81674046
_cell_angle_gamma   76.27889149
_symmetry_Int_Tables_number   1
_chemical_formula_structural   LiP2WO7
_chemical_formula_sum   'Li1 P2 W1 O7'
_cell_volume   129.73108727
_cell_formula_units_Z   1
loop_
 _symmetry_equiv_pos_site_id
 _symmetry_equiv_pos_as_xyz
  1  'x, y, z'
loop_
 _atom_site_type_symbol
 _atom_site_label
 _atom_site_symmetry_multiplicity
 _atom_site_fract_x
 _atom_site_fract_y
 _atom_site_fract_z
 _atom_site_occupancy
  Li  Li0  1  0.086730  0.086730  0.000000  1
  P  P1  1  0.583970  0.996283  0.585967  1
  P  P2  1  0.996283  0.583970  0.414033  1
  W  W3  1  0.458861  0.458861  0.000000  1
  O  O4  1  0.410327  0.135249  0.287168  1
  O  O5  1  0.450569  0.824098  0.752914  1
  O  O6  1  0.689064  0.172512  0.778621  1
  O  O7  1  0.172512  0.689064  0.221379  1
  O  O8  1  0.135249  0.410327  0.712832  1
  O  O9  1  0.839803  0.839803  0.500000  1
  O  O10  1  0.824098  0.450569  0.247086  1
