# generated using pymatgen
data_Li2VF7
_symmetry_space_group_name_H-M   'P 1'
_cell_length_a   6.97349142
_cell_length_b   7.04796613
_cell_length_c   10.19833603
_cell_angle_alpha   90.00000000
_cell_angle_beta   90.00000000
_cell_angle_gamma   90.00000000
_symmetry_Int_Tables_number   1
_chemical_formula_structural   Li2VF7
_chemical_formula_sum   'Li8 V4 F28'
_cell_volume   501.23731728
_cell_formula_units_Z   4
loop_
 _symmetry_equiv_pos_site_id
 _symmetry_equiv_pos_as_xyz
  1  'x, y, z'
loop_
 _atom_site_type_symbol
 _atom_site_label
 _atom_site_symmetry_multiplicity
 _atom_site_fract_x
 _atom_site_fract_y
 _atom_site_fract_z
 _atom_site_occupancy
  Li  Li0  1  0.130811  0.250000  0.748927  1
  Li  Li1  1  0.169115  0.750000  0.000789  1
  Li  Li2  1  0.330885  0.250000  0.500789  1
  Li  Li3  1  0.369189  0.750000  0.248927  1
  Li  Li4  1  0.630811  0.250000  0.751073  1
  Li  Li5  1  0.669115  0.750000  0.499211  1
  Li  Li6  1  0.830885  0.250000  0.999211  1
  Li  Li7  1  0.869189  0.750000  0.251073  1
  V  V8  1  0.194754  0.750000  0.558644  1
  V  V9  1  0.305246  0.250000  0.058644  1
  V  V10  1  0.694754  0.750000  0.941356  1
  V  V11  1  0.805246  0.250000  0.441356  1
  F  F12  1  0.046314  0.250000  0.513955  1
  F  F13  1  0.057001  0.250000  0.113819  1
  F  F14  1  0.116927  0.750000  0.177446  1
  F  F15  1  0.128936  0.569896  0.673278  1
  F  F16  1  0.128936  0.930104  0.673278  1
  F  F17  1  0.236064  0.067630  0.939431  1
  F  F18  1  0.236064  0.432370  0.939431  1
  F  F19  1  0.263936  0.567630  0.439431  1
  F  F20  1  0.263936  0.932370  0.439431  1
  F  F21  1  0.371064  0.069896  0.173278  1
  F  F22  1  0.371064  0.430104  0.173278  1
  F  F23  1  0.383073  0.250000  0.677446  1
  F  F24  1  0.442999  0.750000  0.613819  1
  F  F25  1  0.453686  0.750000  0.013955  1
  F  F26  1  0.546314  0.250000  0.986045  1
  F  F27  1  0.557001  0.250000  0.386181  1
  F  F28  1  0.616927  0.750000  0.322554  1
  F  F29  1  0.628936  0.930104  0.826722  1
  F  F30  1  0.628936  0.569896  0.826722  1
  F  F31  1  0.736064  0.067630  0.560569  1
  F  F32  1  0.736064  0.432370  0.560569  1
  F  F33  1  0.763936  0.932370  0.060569  1
  F  F34  1  0.763936  0.567630  0.060569  1
  F  F35  1  0.871064  0.069896  0.326722  1
  F  F36  1  0.871064  0.430104  0.326722  1
  F  F37  1  0.883073  0.250000  0.822554  1
  F  F38  1  0.942999  0.750000  0.886181  1
  F  F39  1  0.953686  0.750000  0.486045  1
