# generated using pymatgen
data_TeH12(Cl2O3)2
_symmetry_space_group_name_H-M   'P 1'
_cell_length_a   6.90632340
_cell_length_b   8.81709334
_cell_length_c   18.68965263
_cell_angle_alpha   90.00000000
_cell_angle_beta   90.00000000
_cell_angle_gamma   90.00000000
_symmetry_Int_Tables_number   1
_chemical_formula_structural   TeH12(Cl2O3)2
_chemical_formula_sum   'Te4 H48 Cl16 O24'
_cell_volume   1138.08206399
_cell_formula_units_Z   4
loop_
 _symmetry_equiv_pos_site_id
 _symmetry_equiv_pos_as_xyz
  1  'x, y, z'
loop_
 _atom_site_type_symbol
 _atom_site_label
 _atom_site_symmetry_multiplicity
 _atom_site_fract_x
 _atom_site_fract_y
 _atom_site_fract_z
 _atom_site_occupancy
  Te  Te0  1  0.736039  0.909735  0.942612  1
  Te  Te1  1  0.763961  0.090265  0.442612  1
  Te  Te2  1  0.236039  0.590265  0.057388  1
  Te  Te3  1  0.263961  0.409735  0.557388  1
  H  H4  1  0.735376  0.183102  0.983983  1
  H  H5  1  0.764624  0.816898  0.483983  1
  H  H6  1  0.235376  0.316898  0.016017  1
  H  H7  1  0.264624  0.683102  0.516017  1
  H  H8  1  0.759527  0.387472  0.042040  1
  H  H9  1  0.740473  0.612528  0.542040  1
  H  H10  1  0.259527  0.112528  0.957960  1
  H  H11  1  0.240473  0.887472  0.457960  1
  H  H12  1  0.550881  0.320899  0.055802  1
  H  H13  1  0.949119  0.679101  0.555802  1
  H  H14  1  0.050881  0.179101  0.944198  1
  H  H15  1  0.449119  0.820899  0.444198  1
  H  H16  1  0.764968  0.774268  0.271634  1
  H  H17  1  0.735032  0.225732  0.771634  1
  H  H18  1  0.264968  0.725732  0.728366  1
  H  H19  1  0.235032  0.274268  0.228366  1
  H  H20  1  0.783684  0.762279  0.354767  1
  H  H21  1  0.716316  0.237721  0.854767  1
  H  H22  1  0.283684  0.737721  0.645233  1
  H  H23  1  0.216316  0.262279  0.145233  1
  H  H24  1  0.748930  0.234781  0.141010  1
  H  H25  1  0.751070  0.765219  0.641010  1
  H  H26  1  0.248930  0.265219  0.858990  1
  H  H27  1  0.251070  0.734781  0.358990  1
  H  H28  1  0.926238  0.200823  0.193018  1
  H  H29  1  0.573762  0.799177  0.693018  1
  H  H30  1  0.426238  0.299177  0.806982  1
  H  H31  1  0.073762  0.700823  0.306982  1
  H  H32  1  0.504536  0.420922  0.303739  1
  H  H33  1  0.995464  0.579078  0.803739  1
  H  H34  1  0.004536  0.079078  0.696261  1
  H  H35  1  0.495464  0.920922  0.196261  1
  H  H36  1  0.739584  0.351895  0.259088  1
  H  H37  1  0.760416  0.648105  0.759088  1
  H  H38  1  0.239584  0.148105  0.740912  1
  H  H39  1  0.260416  0.851895  0.240912  1
  H  H40  1  0.757233  0.515125  0.300155  1
  H  H41  1  0.742767  0.484875  0.800155  1
  H  H42  1  0.257233  0.984875  0.699845  1
  H  H43  1  0.242767  0.015125  0.199845  1
  H  H44  1  0.288566  0.542534  0.303195  1
  H  H45  1  0.211434  0.457466  0.803195  1
  H  H46  1  0.788566  0.957466  0.696805  1
  H  H47  1  0.711434  0.042534  0.196805  1
  H  H48  1  0.286170  0.384546  0.349071  1
  H  H49  1  0.213830  0.615454  0.849071  1
  H  H50  1  0.786170  0.115454  0.650929  1
  H  H51  1  0.713830  0.884546  0.150929  1
  Cl  Cl52  1  0.950582  0.918224  0.056571  1
  Cl  Cl53  1  0.549418  0.081776  0.556571  1
  Cl  Cl54  1  0.450582  0.581776  0.943429  1
  Cl  Cl55  1  0.049418  0.418224  0.443429  1
  Cl  Cl56  1  0.454581  0.968048  0.027036  1
  Cl  Cl57  1  0.045419  0.031952  0.527036  1
  Cl  Cl58  1  0.954581  0.531952  0.972964  1
  Cl  Cl59  1  0.545419  0.468048  0.472964  1
  Cl  Cl60  1  0.013200  0.905169  0.858184  1
  Cl  Cl61  1  0.486800  0.094831  0.358184  1
  Cl  Cl62  1  0.513200  0.594831  0.141816  1
  Cl  Cl63  1  0.986800  0.405169  0.641816  1
  Cl  Cl64  1  0.507748  0.941682  0.841691  1
  Cl  Cl65  1  0.992252  0.058318  0.341691  1
  Cl  Cl66  1  0.007748  0.558318  0.158309  1
  Cl  Cl67  1  0.492252  0.441682  0.658309  1
  O  O68  1  0.783489  0.131571  0.938502  1
  O  O69  1  0.716511  0.868429  0.438502  1
  O  O70  1  0.283489  0.368429  0.061498  1
  O  O71  1  0.216511  0.631571  0.561498  1
  O  O72  1  0.690344  0.292939  0.054041  1
  O  O73  1  0.809656  0.707061  0.554041  1
  O  O74  1  0.190344  0.207061  0.945959  1
  O  O75  1  0.309656  0.792939  0.445959  1
  O  O76  1  0.818169  0.709224  0.309888  1
  O  O77  1  0.681831  0.290776  0.809888  1
  O  O78  1  0.318169  0.790776  0.690112  1
  O  O79  1  0.181831  0.209224  0.190112  1
  O  O80  1  0.781480  0.198833  0.190693  1
  O  O81  1  0.718520  0.801167  0.690693  1
  O  O82  1  0.281480  0.301167  0.809307  1
  O  O83  1  0.218520  0.698833  0.309307  1
  O  O84  1  0.694275  0.413334  0.300131  1
  O  O85  1  0.805725  0.586666  0.800131  1
  O  O86  1  0.194275  0.086666  0.699869  1
  O  O87  1  0.305725  0.913334  0.199869  1
  O  O88  1  0.338047  0.427843  0.304129  1
  O  O89  1  0.161953  0.572157  0.804129  1
  O  O90  1  0.838047  0.072157  0.695871  1
  O  O91  1  0.661953  0.927843  0.195871  1
