# generated using pymatgen
data_CaBi2O5
_symmetry_space_group_name_H-M   'P 1'
_cell_length_a   8.70643557
_cell_length_b   8.70643557
_cell_length_c   11.34971833
_cell_angle_alpha   89.95738358
_cell_angle_beta   90.04261642
_cell_angle_gamma   96.48345614
_symmetry_Int_Tables_number   1
_chemical_formula_structural   CaBi2O5
_chemical_formula_sum   'Ca6 Bi12 O30'
_cell_volume   854.82890458
_cell_formula_units_Z   6
loop_
 _symmetry_equiv_pos_site_id
 _symmetry_equiv_pos_as_xyz
  1  'x, y, z'
loop_
 _atom_site_type_symbol
 _atom_site_label
 _atom_site_symmetry_multiplicity
 _atom_site_fract_x
 _atom_site_fract_y
 _atom_site_fract_z
 _atom_site_occupancy
  Ca  Ca0  1  0.027445  0.696119  0.571315  1
  Ca  Ca1  1  0.303881  0.972555  0.071315  1
  Ca  Ca2  1  0.323556  0.323556  0.250000  1
  Ca  Ca3  1  0.676444  0.676444  0.750000  1
  Ca  Ca4  1  0.696119  0.027445  0.928685  1
  Ca  Ca5  1  0.972555  0.303881  0.428685  1
  Bi  Bi6  1  0.025343  0.701454  0.931853  1
  Bi  Bi7  1  0.013917  0.349419  0.747972  1
  Bi  Bi8  1  0.298546  0.974657  0.431853  1
  Bi  Bi9  1  0.355414  0.361229  0.557076  1
  Bi  Bi10  1  0.361229  0.355414  0.942924  1
  Bi  Bi11  1  0.349419  0.013917  0.752028  1
  Bi  Bi12  1  0.650581  0.986083  0.247972  1
  Bi  Bi13  1  0.638771  0.644586  0.057076  1
  Bi  Bi14  1  0.644586  0.638771  0.442924  1
  Bi  Bi15  1  0.701454  0.025343  0.568147  1
  Bi  Bi16  1  0.986083  0.650581  0.252028  1
  Bi  Bi17  1  0.974657  0.298546  0.068147  1
  O  O18  1  0.135183  0.458893  0.912114  1
  O  O19  1  0.134850  0.460185  0.591095  1
  O  O20  1  0.102927  0.783435  0.115831  1
  O  O21  1  0.078351  0.432243  0.247939  1
  O  O22  1  0.216565  0.897073  0.615831  1
  O  O23  1  0.209247  0.206181  0.426271  1
  O  O24  1  0.115818  0.782382  0.381283  1
  O  O25  1  0.245936  0.245936  0.750000  1
  O  O26  1  0.206181  0.209247  0.073729  1
  O  O27  1  0.217618  0.884182  0.881283  1
  O  O28  1  0.432243  0.078351  0.252061  1
  O  O29  1  0.451057  0.466267  0.393642  1
  O  O30  1  0.458893  0.135183  0.587886  1
  O  O31  1  0.539815  0.865150  0.091095  1
  O  O32  1  0.466267  0.451057  0.106358  1
  O  O33  1  0.533733  0.548943  0.893642  1
  O  O34  1  0.460185  0.134850  0.908905  1
  O  O35  1  0.541107  0.864817  0.412114  1
  O  O36  1  0.548943  0.533733  0.606358  1
  O  O37  1  0.567757  0.921649  0.747939  1
  O  O38  1  0.782382  0.115818  0.118717  1
  O  O39  1  0.793819  0.790753  0.926271  1
  O  O40  1  0.754064  0.754064  0.250000  1
  O  O41  1  0.884182  0.217618  0.618717  1
  O  O42  1  0.790753  0.793819  0.573729  1
  O  O43  1  0.783435  0.102927  0.384169  1
  O  O44  1  0.921649  0.567757  0.752061  1
  O  O45  1  0.897073  0.216565  0.884169  1
  O  O46  1  0.865150  0.539815  0.408905  1
  O  O47  1  0.864817  0.541107  0.087886  1
