# generated using pymatgen
data_LiVSiO4
_symmetry_space_group_name_H-M   'P 1'
_cell_length_a   5.49890714
_cell_length_b   8.28365821
_cell_length_c   18.79596423
_cell_angle_alpha   90.00000000
_cell_angle_beta   90.00000000
_cell_angle_gamma   90.00000000
_symmetry_Int_Tables_number   1
_chemical_formula_structural   LiVSiO4
_chemical_formula_sum   'Li12 V12 Si12 O48'
_cell_volume   856.17623188
_cell_formula_units_Z   12
loop_
 _symmetry_equiv_pos_site_id
 _symmetry_equiv_pos_as_xyz
  1  'x, y, z'
loop_
 _atom_site_type_symbol
 _atom_site_label
 _atom_site_symmetry_multiplicity
 _atom_site_fract_x
 _atom_site_fract_y
 _atom_site_fract_z
 _atom_site_occupancy
  Li  Li0  1  0.474241  0.175110  0.916930  1
  Li  Li1  1  0.025759  0.675110  0.916930  1
  Li  Li2  1  0.500000  0.830107  0.750000  1
  Li  Li3  1  0.000000  0.330107  0.750000  1
  Li  Li4  1  0.525759  0.175110  0.583070  1
  Li  Li5  1  0.974241  0.675110  0.583070  1
  Li  Li6  1  0.474241  0.824890  0.416930  1
  Li  Li7  1  0.025759  0.324890  0.416930  1
  Li  Li8  1  0.500000  0.169893  0.250000  1
  Li  Li9  1  0.000000  0.669893  0.250000  1
  Li  Li10  1  0.525759  0.824890  0.083070  1
  Li  Li11  1  0.974241  0.324890  0.083070  1
  V  V12  1  0.500000  0.500000  0.000000  1
  V  V13  1  0.000000  0.000000  0.000000  1
  V  V14  1  0.999141  0.000872  0.833158  1
  V  V15  1  0.500859  0.500872  0.833158  1
  V  V16  1  0.000859  0.000872  0.666842  1
  V  V17  1  0.499141  0.500872  0.666842  1
  V  V18  1  0.500000  0.500000  0.500000  1
  V  V19  1  0.000000  0.000000  0.500000  1
  V  V20  1  0.999141  0.999128  0.333158  1
  V  V21  1  0.500859  0.499128  0.333158  1
  V  V22  1  0.000859  0.999128  0.166842  1
  V  V23  1  0.499141  0.499128  0.166842  1
  Si  Si24  1  0.503265  0.849137  0.916576  1
  Si  Si25  1  0.996735  0.349137  0.916576  1
  Si  Si26  1  0.500000  0.152227  0.750000  1
  Si  Si27  1  0.000000  0.652227  0.750000  1
  Si  Si28  1  0.496735  0.849137  0.583424  1
  Si  Si29  1  0.003265  0.349137  0.583424  1
  Si  Si30  1  0.503265  0.150863  0.416576  1
  Si  Si31  1  0.996735  0.650863  0.416576  1
  Si  Si32  1  0.500000  0.847773  0.250000  1
  Si  Si33  1  0.000000  0.347773  0.250000  1
  Si  Si34  1  0.496735  0.150863  0.083424  1
  Si  Si35  1  0.003265  0.650863  0.083424  1
  O  O36  1  0.002327  0.762727  0.012158  1
  O  O37  1  0.502327  0.737273  0.987842  1
  O  O38  1  0.997673  0.237273  0.987842  1
  O  O39  1  0.756711  0.473343  0.916586  1
  O  O40  1  0.238810  0.471966  0.916676  1
  O  O41  1  0.261190  0.971966  0.916676  1
  O  O42  1  0.743289  0.973343  0.916586  1
  O  O43  1  0.497928  0.737537  0.845210  1
  O  O44  1  0.002072  0.237537  0.845210  1
  O  O45  1  0.497712  0.263450  0.821426  1
  O  O46  1  0.002288  0.763450  0.821426  1
  O  O47  1  0.238846  0.527534  0.749977  1
  O  O48  1  0.761154  0.527534  0.750023  1
  O  O49  1  0.738846  0.027534  0.750023  1
  O  O50  1  0.261154  0.027534  0.749977  1
  O  O51  1  0.502288  0.263450  0.678574  1
  O  O52  1  0.997712  0.763450  0.678574  1
  O  O53  1  0.502072  0.737537  0.654790  1
  O  O54  1  0.997928  0.237537  0.654790  1
  O  O55  1  0.243289  0.473343  0.583414  1
  O  O56  1  0.761190  0.471966  0.583324  1
  O  O57  1  0.738810  0.971966  0.583324  1
  O  O58  1  0.256711  0.973343  0.583414  1
  O  O59  1  0.497673  0.737273  0.512158  1
  O  O60  1  0.002327  0.237273  0.512158  1
  O  O61  1  0.502327  0.262727  0.487842  1
  O  O62  1  0.997673  0.762727  0.487842  1
  O  O63  1  0.756711  0.526657  0.416586  1
  O  O64  1  0.238810  0.528034  0.416676  1
  O  O65  1  0.261190  0.028034  0.416676  1
  O  O66  1  0.743289  0.026657  0.416586  1
  O  O67  1  0.497928  0.262463  0.345210  1
  O  O68  1  0.002072  0.762463  0.345210  1
  O  O69  1  0.497712  0.736550  0.321426  1
  O  O70  1  0.002288  0.236550  0.321426  1
  O  O71  1  0.761154  0.472466  0.250023  1
  O  O72  1  0.238846  0.472466  0.249977  1
  O  O73  1  0.261154  0.972466  0.249977  1
  O  O74  1  0.738846  0.972466  0.250023  1
  O  O75  1  0.502288  0.736550  0.178574  1
  O  O76  1  0.997712  0.236550  0.178574  1
  O  O77  1  0.502072  0.262463  0.154790  1
  O  O78  1  0.997928  0.762463  0.154790  1
  O  O79  1  0.243289  0.526657  0.083414  1
  O  O80  1  0.761190  0.528034  0.083324  1
  O  O81  1  0.738810  0.028034  0.083324  1
  O  O82  1  0.256711  0.026657  0.083414  1
  O  O83  1  0.497673  0.262727  0.012158  1
