# generated using pymatgen
data_Ti7O8
_symmetry_space_group_name_H-M   'P 1'
_cell_length_a   5.19881476
_cell_length_b   5.19881476
_cell_length_c   8.94130881
_cell_angle_alpha   72.45962687
_cell_angle_beta   107.54037313
_cell_angle_gamma   133.51234574
_symmetry_Int_Tables_number   1
_chemical_formula_structural   Ti7O8
_chemical_formula_sum   'Ti7 O8'
_cell_volume   165.56433477
_cell_formula_units_Z   1
loop_
 _symmetry_equiv_pos_site_id
 _symmetry_equiv_pos_as_xyz
  1  'x, y, z'
loop_
 _atom_site_type_symbol
 _atom_site_label
 _atom_site_symmetry_multiplicity
 _atom_site_fract_x
 _atom_site_fract_y
 _atom_site_fract_z
 _atom_site_occupancy
  Ti  Ti0  1  0.325660  0.674340  0.114052  1
  Ti  Ti1  1  0.351753  0.648247  0.455129  1
  Ti  Ti2  1  0.982807  0.017193  0.334900  1
  Ti  Ti3  1  0.338515  0.661485  0.775237  1
  Ti  Ti4  1  0.668347  0.331653  0.197364  1
  Ti  Ti5  1  0.659566  0.340434  0.899799  1
  Ti  Ti6  1  0.651846  0.348154  0.569462  1
  O  O7  1  0.167889  0.832111  0.236516  1
  O  O8  1  0.187123  0.812877  0.887405  1
  O  O9  1  0.171453  0.828547  0.551290  1
  O  O10  1  0.816142  0.183858  0.440285  1
  O  O11  1  0.843976  0.156024  0.101258  1
  O  O12  1  0.499660  0.500340  0.676839  1
  O  O13  1  0.492769  0.507231  0.992069  1
  O  O14  1  0.509168  0.490832  0.323952  1
