# generated using pymatgen
data_Li5Mn5(FeO6)2
_symmetry_space_group_name_H-M   'P 1'
_cell_length_a   5.24265551
_cell_length_b   5.24265551
_cell_length_c   9.92287043
_cell_angle_alpha   85.16759128
_cell_angle_beta   94.83240872
_cell_angle_gamma   60.01354772
_symmetry_Int_Tables_number   1
_chemical_formula_structural   Li5Mn5(FeO6)2
_chemical_formula_sum   'Li5 Mn5 Fe2 O12'
_cell_volume   232.85160336
_cell_formula_units_Z   1
loop_
 _symmetry_equiv_pos_site_id
 _symmetry_equiv_pos_as_xyz
  1  'x, y, z'
loop_
 _atom_site_type_symbol
 _atom_site_label
 _atom_site_symmetry_multiplicity
 _atom_site_fract_x
 _atom_site_fract_y
 _atom_site_fract_z
 _atom_site_occupancy
  Li  Li0  1  0.164401  0.678998  0.240821  1
  Li  Li1  1  0.336843  0.832544  0.753305  1
  Li  Li2  1  0.678998  0.164401  0.759179  1
  Li  Li3  1  0.832544  0.336843  0.246695  1
  Li  Li4  1  0.084122  0.084122  0.000000  1
  Mn  Mn5  1  0.489106  0.005983  0.244535  1
  Mn  Mn6  1  0.005983  0.489106  0.755465  1
  Mn  Mn7  1  0.927158  0.927158  0.500000  1
  Mn  Mn8  1  0.423291  0.423291  0.000000  1
  Mn  Mn9  1  0.586871  0.586871  0.500000  1
  Fe  Fe10  1  0.749658  0.749658  0.000000  1
  Fe  Fe11  1  0.256419  0.256419  0.500000  1
  O  O12  1  0.017905  0.774777  0.872406  1
  O  O13  1  0.308318  0.553246  0.612941  1
  O  O14  1  0.653286  0.834127  0.625865  1
  O  O15  1  0.153031  0.373454  0.122124  1
  O  O16  1  0.468753  0.697282  0.112529  1
  O  O17  1  0.553246  0.308318  0.387059  1
  O  O18  1  0.774777  0.017905  0.127594  1
  O  O19  1  0.211044  0.982584  0.365632  1
  O  O20  1  0.834127  0.653286  0.374135  1
  O  O21  1  0.373454  0.153031  0.877876  1
  O  O22  1  0.697282  0.468753  0.887471  1
  O  O23  1  0.982584  0.211044  0.634368  1
