# generated using pymatgen
data_Li2V(BO2)5
_symmetry_space_group_name_H-M   'P 1'
_cell_length_a   7.26204991
_cell_length_b   15.40250511
_cell_length_c   7.29046506
_cell_angle_alpha   90.00000000
_cell_angle_beta   90.88070758
_cell_angle_gamma   90.00000000
_symmetry_Int_Tables_number   1
_chemical_formula_structural   Li2V(BO2)5
_chemical_formula_sum   'Li8 V4 B20 O40'
_cell_volume   815.36959984
_cell_formula_units_Z   4
loop_
 _symmetry_equiv_pos_site_id
 _symmetry_equiv_pos_as_xyz
  1  'x, y, z'
loop_
 _atom_site_type_symbol
 _atom_site_label
 _atom_site_symmetry_multiplicity
 _atom_site_fract_x
 _atom_site_fract_y
 _atom_site_fract_z
 _atom_site_occupancy
  Li  Li0  1  0.098815  0.831321  0.999908  1
  Li  Li1  1  0.098815  0.668679  0.499908  1
  Li  Li2  1  0.305146  0.074005  0.590522  1
  Li  Li3  1  0.305146  0.425995  0.090522  1
  Li  Li4  1  0.694854  0.574005  0.909478  1
  Li  Li5  1  0.694854  0.925995  0.409478  1
  Li  Li6  1  0.901185  0.331321  0.500092  1
  Li  Li7  1  0.901185  0.168679  0.000092  1
  V  V8  1  0.152029  0.875905  0.535574  1
  V  V9  1  0.152029  0.624095  0.035574  1
  V  V10  1  0.847971  0.375905  0.964426  1
  V  V11  1  0.847971  0.124095  0.464426  1
  B  B12  1  0.202078  0.974001  0.908735  1
  B  B13  1  0.202078  0.525999  0.408735  1
  B  B14  1  0.216564  0.223372  0.521325  1
  B  B15  1  0.216564  0.276628  0.021325  1
  B  B16  1  0.247229  0.495757  0.733381  1
  B  B17  1  0.247229  0.004243  0.233381  1
  B  B18  1  0.318009  0.379552  0.505314  1
  B  B19  1  0.318009  0.120448  0.005314  1
  B  B20  1  0.457605  0.741906  0.501082  1
  B  B21  1  0.457605  0.758094  0.001082  1
  B  B22  1  0.542395  0.241906  0.998918  1
  B  B23  1  0.542395  0.258094  0.498918  1
  B  B24  1  0.681991  0.879552  0.994686  1
  B  B25  1  0.681991  0.620448  0.494686  1
  B  B26  1  0.752771  0.995757  0.766619  1
  B  B27  1  0.752771  0.504243  0.266619  1
  B  B28  1  0.783436  0.723372  0.978675  1
  B  B29  1  0.783436  0.776628  0.478675  1
  B  B30  1  0.797922  0.474001  0.591265  1
  B  B31  1  0.797922  0.025999  0.091265  1
  O  O32  1  0.093090  0.157623  0.538800  1
  O  O33  1  0.093090  0.342377  0.038800  1
  O  O34  1  0.150317  0.911339  0.787278  1
  O  O35  1  0.150317  0.588661  0.287278  1
  O  O36  1  0.170495  0.190978  0.993761  1
  O  O37  1  0.170949  0.548545  0.593944  1
  O  O38  1  0.170495  0.309022  0.493761  1
  O  O39  1  0.170949  0.951455  0.093944  1
  O  O40  1  0.249797  0.523707  0.912301  1
  O  O41  1  0.249797  0.976293  0.412301  1
  O  O42  1  0.277257  0.767224  0.509460  1
  O  O43  1  0.276466  0.052741  0.862258  1
  O  O44  1  0.277257  0.732776  0.009460  1
  O  O45  1  0.276466  0.447259  0.362258  1
  O  O46  1  0.317924  0.416997  0.690186  1
  O  O47  1  0.317924  0.083003  0.190186  1
  O  O48  1  0.402907  0.197376  0.537275  1
  O  O49  1  0.402907  0.302624  0.037275  1
  O  O50  1  0.502039  0.657372  0.530689  1
  O  O51  1  0.497961  0.157372  0.969311  1
  O  O52  1  0.502039  0.842628  0.030689  1
  O  O53  1  0.497961  0.342628  0.469311  1
  O  O54  1  0.597093  0.697376  0.962725  1
  O  O55  1  0.597093  0.802624  0.462725  1
  O  O56  1  0.682076  0.916997  0.809814  1
  O  O57  1  0.682076  0.583003  0.309814  1
  O  O58  1  0.723534  0.552741  0.637742  1
  O  O59  1  0.722743  0.267224  0.990540  1
  O  O60  1  0.723534  0.947259  0.137742  1
  O  O61  1  0.722743  0.232776  0.490540  1
  O  O62  1  0.750203  0.023707  0.587699  1
  O  O63  1  0.750203  0.476293  0.087699  1
  O  O64  1  0.829051  0.048545  0.906056  1
  O  O65  1  0.829505  0.690978  0.506239  1
  O  O66  1  0.829051  0.451455  0.406056  1
  O  O67  1  0.829505  0.809022  0.006239  1
  O  O68  1  0.849683  0.411339  0.712722  1
  O  O69  1  0.849683  0.088661  0.212722  1
  O  O70  1  0.906910  0.657623  0.961200  1
  O  O71  1  0.906910  0.842377  0.461200  1
