# generated using pymatgen
data_Fe10O19F
_symmetry_space_group_name_H-M   'P 1'
_cell_length_a   4.64038104
_cell_length_b   4.64038104
_cell_length_c   14.81546694
_cell_angle_alpha   90.00000000
_cell_angle_beta   90.00000000
_cell_angle_gamma   90.85860962
_symmetry_Int_Tables_number   1
_chemical_formula_structural   Fe10O19F
_chemical_formula_sum   'Fe10 O19 F1'
_cell_volume   318.98764687
_cell_formula_units_Z   1
loop_
 _symmetry_equiv_pos_site_id
 _symmetry_equiv_pos_as_xyz
  1  'x, y, z'
loop_
 _atom_site_type_symbol
 _atom_site_label
 _atom_site_symmetry_multiplicity
 _atom_site_fract_x
 _atom_site_fract_y
 _atom_site_fract_z
 _atom_site_occupancy
  Fe  Fe0  1  0.993641  0.006359  0.895222  1
  Fe  Fe1  1  0.998423  0.001577  0.698063  1
  Fe  Fe2  1  0.999483  0.000517  0.500000  1
  Fe  Fe3  1  0.998423  0.001577  0.301937  1
  Fe  Fe4  1  0.993641  0.006359  0.104778  1
  Fe  Fe5  1  0.498274  0.501726  0.799467  1
  Fe  Fe6  1  0.499141  0.500859  0.400064  1
  Fe  Fe7  1  0.499141  0.500859  0.599936  1
  Fe  Fe8  1  0.498274  0.501726  0.200533  1
  Fe  Fe9  1  0.520365  0.479635  0.000000  1
  O  O10  1  0.805257  0.194743  0.793688  1
  O  O11  1  0.810606  0.189394  0.598891  1
  O  O12  1  0.810606  0.189394  0.401109  1
  O  O13  1  0.805257  0.194743  0.206312  1
  O  O14  1  0.818293  0.181707  0.000000  1
  O  O15  1  0.310351  0.305616  0.899594  1
  O  O16  1  0.306994  0.312232  0.699296  1
  O  O17  1  0.309422  0.309970  0.500000  1
  O  O18  1  0.306994  0.312232  0.300704  1
  O  O19  1  0.310351  0.305616  0.100406  1
  O  O20  1  0.694384  0.689649  0.899594  1
  O  O21  1  0.687768  0.693006  0.699296  1
  O  O22  1  0.690031  0.690578  0.500000  1
  O  O23  1  0.687768  0.693006  0.300704  1
  O  O24  1  0.694384  0.689649  0.100406  1
  O  O25  1  0.188254  0.811746  0.795955  1
  O  O26  1  0.187283  0.812717  0.400704  1
  O  O27  1  0.187283  0.812717  0.599296  1
  O  O28  1  0.188254  0.811746  0.204045  1
  F  F29  1  0.201654  0.798346  0.000000  1
