# generated using pymatgen
data_RbNaCr2O7
_symmetry_space_group_name_H-M   'P 1'
_cell_length_a   10.13066794
_cell_length_b   11.23381103
_cell_length_c   13.12205995
_cell_angle_alpha   90.00000000
_cell_angle_beta   93.49768994
_cell_angle_gamma   90.00000000
_symmetry_Int_Tables_number   1
_chemical_formula_structural   RbNaCr2O7
_chemical_formula_sum   'Rb8 Na8 Cr16 O56'
_cell_volume   1490.58751619
_cell_formula_units_Z   8
loop_
 _symmetry_equiv_pos_site_id
 _symmetry_equiv_pos_as_xyz
  1  'x, y, z'
loop_
 _atom_site_type_symbol
 _atom_site_label
 _atom_site_symmetry_multiplicity
 _atom_site_fract_x
 _atom_site_fract_y
 _atom_site_fract_z
 _atom_site_occupancy
  Rb  Rb0  1  0.586239  0.184024  0.148705  1
  Rb  Rb1  1  0.913761  0.684024  0.851295  1
  Rb  Rb2  1  0.738847  0.991351  0.583029  1
  Rb  Rb3  1  0.261153  0.008649  0.416971  1
  Rb  Rb4  1  0.238847  0.508649  0.583029  1
  Rb  Rb5  1  0.761153  0.491351  0.416971  1
  Rb  Rb6  1  0.086239  0.315976  0.148705  1
  Rb  Rb7  1  0.413761  0.815976  0.851295  1
  Na  Na8  1  0.983979  0.076311  0.847861  1
  Na  Na9  1  0.320831  0.156220  0.718067  1
  Na  Na10  1  0.820831  0.343780  0.718067  1
  Na  Na11  1  0.679169  0.843780  0.281933  1
  Na  Na12  1  0.483979  0.423689  0.847861  1
  Na  Na13  1  0.516021  0.576311  0.152139  1
  Na  Na14  1  0.016021  0.923689  0.152139  1
  Na  Na15  1  0.179169  0.656220  0.281933  1
  Cr  Cr16  1  0.613912  0.103746  0.842069  1
  Cr  Cr17  1  0.890830  0.135551  0.335857  1
  Cr  Cr18  1  0.386088  0.896254  0.157931  1
  Cr  Cr19  1  0.530928  0.269607  0.560561  1
  Cr  Cr20  1  0.030928  0.230393  0.560561  1
  Cr  Cr21  1  0.969072  0.769607  0.439439  1
  Cr  Cr22  1  0.609170  0.635551  0.664143  1
  Cr  Cr23  1  0.109170  0.864449  0.664143  1
  Cr  Cr24  1  0.113912  0.396254  0.842069  1
  Cr  Cr25  1  0.745891  0.904054  0.003390  1
  Cr  Cr26  1  0.245891  0.595946  0.003390  1
  Cr  Cr27  1  0.754109  0.404054  0.996610  1
  Cr  Cr28  1  0.886088  0.603746  0.157931  1
  Cr  Cr29  1  0.469072  0.730393  0.439439  1
  Cr  Cr30  1  0.390830  0.364449  0.335857  1
  Cr  Cr31  1  0.254109  0.095946  0.996610  1
  O  O32  1  0.477953  0.134416  0.540951  1
  O  O33  1  0.306983  0.728458  0.436097  1
  O  O34  1  0.004235  0.094052  0.258776  1
  O  O35  1  0.267037  0.457802  0.332444  1
  O  O36  1  0.693017  0.271542  0.563903  1
  O  O37  1  0.761204  0.918671  0.128128  1
  O  O38  1  0.528051  0.025521  0.756307  1
  O  O39  1  0.504235  0.405948  0.258776  1
  O  O40  1  0.660681  0.768604  0.696287  1
  O  O41  1  0.364183  0.981538  0.043170  1
  O  O42  1  0.609884  0.421781  0.044157  1
  O  O43  1  0.520054  0.679583  0.331457  1
  O  O44  1  0.814823  0.275212  0.031715  1
  O  O45  1  0.732963  0.542198  0.667556  1
  O  O46  1  0.193017  0.228458  0.563903  1
  O  O47  1  0.971949  0.525521  0.243693  1
  O  O48  1  0.464323  0.367077  0.463072  1
  O  O49  1  0.743844  0.639714  0.202590  1
  O  O50  1  0.232963  0.957802  0.667556  1
  O  O51  1  0.535677  0.632923  0.536928  1
  O  O52  1  0.529212  0.220595  0.871317  1
  O  O53  1  0.314823  0.224788  0.031715  1
  O  O54  1  0.756156  0.139714  0.797410  1
  O  O55  1  0.135817  0.481538  0.956830  1
  O  O56  1  0.964323  0.132923  0.463072  1
  O  O57  1  0.806983  0.771542  0.436097  1
  O  O58  1  0.238796  0.081329  0.871872  1
  O  O59  1  0.995765  0.905948  0.741224  1
  O  O60  1  0.839319  0.268604  0.303713  1
  O  O61  1  0.028051  0.474479  0.756307  1
  O  O62  1  0.495765  0.594052  0.741224  1
  O  O63  1  0.185177  0.724788  0.968285  1
  O  O64  1  0.767037  0.042198  0.332444  1
  O  O65  1  0.020054  0.820417  0.331457  1
  O  O66  1  0.635817  0.018462  0.956830  1
  O  O67  1  0.035677  0.867077  0.536928  1
  O  O68  1  0.022047  0.634416  0.459049  1
  O  O69  1  0.243844  0.860286  0.202590  1
  O  O70  1  0.390116  0.578219  0.955843  1
  O  O71  1  0.470788  0.779405  0.128683  1
  O  O72  1  0.109884  0.078219  0.044157  1
  O  O73  1  0.890116  0.921781  0.955843  1
  O  O74  1  0.522047  0.865584  0.459049  1
  O  O75  1  0.339319  0.231396  0.303713  1
  O  O76  1  0.970788  0.720595  0.128683  1
  O  O77  1  0.261204  0.581329  0.128128  1
  O  O78  1  0.029212  0.279405  0.871317  1
  O  O79  1  0.256156  0.360286  0.797410  1
  O  O80  1  0.864183  0.518462  0.043170  1
  O  O81  1  0.685177  0.775212  0.968285  1
  O  O82  1  0.977953  0.365584  0.540951  1
  O  O83  1  0.471949  0.974479  0.243693  1
  O  O84  1  0.979946  0.179583  0.668543  1
  O  O85  1  0.738796  0.418671  0.871872  1
  O  O86  1  0.160681  0.731396  0.696287  1
  O  O87  1  0.479946  0.320417  0.668543  1
