# generated using pymatgen
data_IClO
_symmetry_space_group_name_H-M   'P 1'
_cell_length_a   9.44364061
_cell_length_b   9.44364061
_cell_length_c   9.44364061
_cell_angle_alpha   114.43557414
_cell_angle_beta   114.43557414
_cell_angle_gamma   114.43557414
_symmetry_Int_Tables_number   1
_chemical_formula_structural   IClO
_chemical_formula_sum   'I6 Cl6 O6'
_cell_volume   494.72373647
_cell_formula_units_Z   6
loop_
 _symmetry_equiv_pos_site_id
 _symmetry_equiv_pos_as_xyz
  1  'x, y, z'
loop_
 _atom_site_type_symbol
 _atom_site_label
 _atom_site_symmetry_multiplicity
 _atom_site_fract_x
 _atom_site_fract_y
 _atom_site_fract_z
 _atom_site_occupancy
  I  I0  1  0.247090  0.583830  0.724193  1
  I  I1  1  0.275807  0.752910  0.416170  1
  I  I2  1  0.416170  0.275807  0.752910  1
  I  I3  1  0.583830  0.724193  0.247090  1
  I  I4  1  0.724193  0.247090  0.583830  1
  I  I5  1  0.752910  0.416170  0.275807  1
  Cl  Cl6  1  0.080175  0.375480  0.126013  1
  Cl  Cl7  1  0.624520  0.873987  0.919825  1
  Cl  Cl8  1  0.126013  0.080175  0.375480  1
  Cl  Cl9  1  0.873987  0.919825  0.624520  1
  Cl  Cl10  1  0.375480  0.126013  0.080175  1
  Cl  Cl11  1  0.919825  0.624520  0.873987  1
  O  O12  1  0.133846  0.687847  0.514294  1
  O  O13  1  0.312153  0.485706  0.866154  1
  O  O14  1  0.485706  0.866154  0.312153  1
  O  O15  1  0.514294  0.133846  0.687847  1
  O  O16  1  0.687847  0.514294  0.133846  1
  O  O17  1  0.866154  0.312153  0.485706  1
