# generated using pymatgen
data_Mn5O3F5
_symmetry_space_group_name_H-M   'P 1'
_cell_length_a   6.32867097
_cell_length_b   6.32867097
_cell_length_c   6.19234341
_cell_angle_alpha   62.26533572
_cell_angle_beta   117.73466428
_cell_angle_gamma   120.30015208
_symmetry_Int_Tables_number   1
_chemical_formula_structural   Mn5O3F5
_chemical_formula_sum   'Mn5 O3 F5'
_cell_volume   180.70076643
_cell_formula_units_Z   1
loop_
 _symmetry_equiv_pos_site_id
 _symmetry_equiv_pos_as_xyz
  1  'x, y, z'
loop_
 _atom_site_type_symbol
 _atom_site_label
 _atom_site_symmetry_multiplicity
 _atom_site_fract_x
 _atom_site_fract_y
 _atom_site_fract_z
 _atom_site_occupancy
  Mn  Mn0  1  0.374630  0.625370  0.124775  1
  Mn  Mn1  1  0.726959  0.273041  0.231649  1
  Mn  Mn2  1  0.862784  0.615880  0.636172  1
  Mn  Mn3  1  0.384120  0.137216  0.636172  1
  Mn  Mn4  1  0.011506  0.988494  0.990472  1
  O  O5  1  0.605778  0.394222  0.389060  1
  O  O6  1  0.143031  0.856969  0.854862  1
  O  O7  1  0.632309  0.367691  0.856220  1
  F  F8  1  0.634232  0.876775  0.367584  1
  F  F9  1  0.123225  0.365768  0.367584  1
  F  F10  1  0.114204  0.885796  0.389228  1
  F  F11  1  0.620954  0.878455  0.878037  1
  F  F12  1  0.121545  0.379046  0.878037  1
