# generated using pymatgen
data_ReO2
_symmetry_space_group_name_H-M   'P 1'
_cell_length_a   4.62975945
_cell_length_b   4.88610475
_cell_length_c   5.70027496
_cell_angle_alpha   90.00000000
_cell_angle_beta   90.00000000
_cell_angle_gamma   90.00000000
_symmetry_Int_Tables_number   1
_chemical_formula_structural   ReO2
_chemical_formula_sum   'Re4 O8'
_cell_volume   128.94871095
_cell_formula_units_Z   4
loop_
 _symmetry_equiv_pos_site_id
 _symmetry_equiv_pos_as_xyz
  1  'x, y, z'
loop_
 _atom_site_type_symbol
 _atom_site_label
 _atom_site_symmetry_multiplicity
 _atom_site_fract_x
 _atom_site_fract_y
 _atom_site_fract_z
 _atom_site_occupancy
  Re  Re0  1  0.250000  0.500000  0.607526  1
  Re  Re1  1  0.750000  0.000000  0.892474  1
  Re  Re2  1  0.750000  0.500000  0.392474  1
  Re  Re3  1  0.250000  0.000000  0.107526  1
  O  O4  1  0.591362  0.242539  0.640390  1
  O  O5  1  0.091362  0.257461  0.859610  1
  O  O6  1  0.408638  0.742539  0.859610  1
  O  O7  1  0.908638  0.757461  0.640390  1
  O  O8  1  0.091362  0.242539  0.359610  1
  O  O9  1  0.591362  0.257461  0.140390  1
  O  O10  1  0.908638  0.742539  0.140390  1
  O  O11  1  0.408638  0.757461  0.359610  1
