# generated using pymatgen
data_VOF
_symmetry_space_group_name_H-M   'P 1'
_cell_length_a   5.22803314
_cell_length_b   4.67462435
_cell_length_c   5.71375716
_cell_angle_alpha   90.00000000
_cell_angle_beta   92.36862119
_cell_angle_gamma   90.00000000
_symmetry_Int_Tables_number   1
_chemical_formula_structural   VOF
_chemical_formula_sum   'V4 O4 F4'
_cell_volume   139.51972548
_cell_formula_units_Z   4
loop_
 _symmetry_equiv_pos_site_id
 _symmetry_equiv_pos_as_xyz
  1  'x, y, z'
loop_
 _atom_site_type_symbol
 _atom_site_label
 _atom_site_symmetry_multiplicity
 _atom_site_fract_x
 _atom_site_fract_y
 _atom_site_fract_z
 _atom_site_occupancy
  V  V0  1  0.223168  0.481492  0.843981  1
  V  V1  1  0.223168  0.018508  0.343981  1
  V  V2  1  0.776832  0.981492  0.656019  1
  V  V3  1  0.776832  0.518508  0.156019  1
  O  O4  1  0.081371  0.219980  0.620650  1
  O  O5  1  0.081371  0.280020  0.120650  1
  O  O6  1  0.918629  0.719980  0.879350  1
  O  O7  1  0.918629  0.780020  0.379350  1
  F  F8  1  0.417585  0.768767  0.612489  1
  F  F9  1  0.417585  0.731233  0.112489  1
  F  F10  1  0.582415  0.268767  0.887511  1
  F  F11  1  0.582415  0.231233  0.387511  1
