# generated using pymatgen
data_LiCuF3
_symmetry_space_group_name_H-M   'P 1'
_cell_length_a   5.53269349
_cell_length_b   5.53269349
_cell_length_c   5.53269349
_cell_angle_alpha   55.25518251
_cell_angle_beta   55.25518251
_cell_angle_gamma   55.25518251
_symmetry_Int_Tables_number   1
_chemical_formula_structural   LiCuF3
_chemical_formula_sum   'Li2 Cu2 F6'
_cell_volume   106.54860350
_cell_formula_units_Z   2
loop_
 _symmetry_equiv_pos_site_id
 _symmetry_equiv_pos_as_xyz
  1  'x, y, z'
loop_
 _atom_site_type_symbol
 _atom_site_label
 _atom_site_symmetry_multiplicity
 _atom_site_fract_x
 _atom_site_fract_y
 _atom_site_fract_z
 _atom_site_occupancy
  Li  Li0  1  0.805688  0.805688  0.805688  1
  Li  Li1  1  0.305688  0.305688  0.305688  1
  Cu  Cu2  1  0.510554  0.510554  0.510554  1
  Cu  Cu3  1  0.010554  0.010554  0.010554  1
  F  F4  1  0.732264  0.406666  0.114293  1
  F  F5  1  0.614293  0.906666  0.232264  1
  F  F6  1  0.906666  0.232264  0.614293  1
  F  F7  1  0.114293  0.732264  0.406666  1
  F  F8  1  0.406666  0.114293  0.732264  1
  F  F9  1  0.232264  0.614293  0.906666  1
