# generated using pymatgen
data_Ti3Fe2Sb(PO4)6
_symmetry_space_group_name_H-M   'P 1'
_cell_length_a   8.65679924
_cell_length_b   8.65679924
_cell_length_c   8.65679924
_cell_angle_alpha   61.21341727
_cell_angle_beta   61.21341727
_cell_angle_gamma   61.21341727
_symmetry_Int_Tables_number   1
_chemical_formula_structural   Ti3Fe2Sb(PO4)6
_chemical_formula_sum   'Ti3 Fe2 Sb1 P6 O24'
_cell_volume   471.24969628
_cell_formula_units_Z   1
loop_
 _symmetry_equiv_pos_site_id
 _symmetry_equiv_pos_as_xyz
  1  'x, y, z'
loop_
 _atom_site_type_symbol
 _atom_site_label
 _atom_site_symmetry_multiplicity
 _atom_site_fract_x
 _atom_site_fract_y
 _atom_site_fract_z
 _atom_site_occupancy
  Ti  Ti0  1  0.855369  0.855369  0.855369  1
  Ti  Ti1  1  0.646205  0.646205  0.646205  1
  Ti  Ti2  1  0.353990  0.353990  0.353990  1
  Fe  Fe3  1  0.000005  0.000005  0.000005  1
  Fe  Fe4  1  0.501112  0.501112  0.501112  1
  Sb  Sb5  1  0.146301  0.146301  0.146301  1
  P  P6  1  0.947150  0.250725  0.556751  1
  P  P7  1  0.556751  0.947150  0.250725  1
  P  P8  1  0.739062  0.464553  0.043838  1
  P  P9  1  0.464553  0.043838  0.739062  1
  P  P10  1  0.043838  0.739062  0.464553  1
  P  P11  1  0.250725  0.556751  0.947150  1
  O  O12  1  0.889656  0.661049  0.524011  1
  O  O13  1  0.661049  0.524011  0.889656  1
  O  O14  1  0.937627  0.092375  0.748613  1
  O  O15  1  0.524011  0.889656  0.661049  1
  O  O16  1  0.964679  0.186609  0.411594  1
  O  O17  1  0.756310  0.412564  0.576796  1
  O  O18  1  0.748613  0.937627  0.092375  1
  O  O19  1  0.576796  0.756310  0.412564  1
  O  O20  1  0.813249  0.616815  0.001167  1
  O  O21  1  0.412564  0.576796  0.756310  1
  O  O22  1  0.889643  0.270887  0.045465  1
  O  O23  1  0.616815  0.001167  0.813249  1
  O  O24  1  0.411594  0.964679  0.186609  1
  O  O25  1  0.092375  0.748613  0.937627  1
  O  O26  1  0.582845  0.450377  0.238285  1
  O  O27  1  0.186609  0.411594  0.964679  1
  O  O28  1  0.450377  0.238285  0.582845  1
  O  O29  1  0.270887  0.045465  0.889643  1
  O  O30  1  0.238285  0.582845  0.450377  1
  O  O31  1  0.001167  0.813249  0.616815  1
  O  O32  1  0.497962  0.116421  0.309939  1
  O  O33  1  0.045465  0.889643  0.270887  1
  O  O34  1  0.309939  0.497962  0.116421  1
  O  O35  1  0.116421  0.309939  0.497962  1
