# generated using pymatgen
data_Li7Ti11O24
_symmetry_space_group_name_H-M   'P 1'
_cell_length_a   10.34894486
_cell_length_b   10.34894486
_cell_length_c   5.96483821
_cell_angle_alpha   73.21389044
_cell_angle_beta   106.78610956
_cell_angle_gamma   59.99813981
_symmetry_Int_Tables_number   1
_chemical_formula_structural   Li7Ti11O24
_chemical_formula_sum   'Li7 Ti11 O24'
_cell_volume   451.61444011
_cell_formula_units_Z   1
loop_
 _symmetry_equiv_pos_site_id
 _symmetry_equiv_pos_as_xyz
  1  'x, y, z'
loop_
 _atom_site_type_symbol
 _atom_site_label
 _atom_site_symmetry_multiplicity
 _atom_site_fract_x
 _atom_site_fract_y
 _atom_site_fract_z
 _atom_site_occupancy
  Li  Li0  1  0.541833  0.788313  0.130209  1
  Li  Li1  1  0.211687  0.458167  0.130209  1
  Li  Li2  1  0.500000  0.500000  0.000000  1
  Li  Li3  1  0.788313  0.541833  0.869791  1
  Li  Li4  1  0.458167  0.211687  0.869791  1
  Li  Li5  1  0.875958  0.124042  0.128020  1
  Li  Li6  1  0.124042  0.875958  0.871980  1
  Ti  Ti7  1  0.000000  0.500000  0.500000  1
  Ti  Ti8  1  0.179374  0.657076  0.521137  1
  Ti  Ti9  1  0.500000  0.500000  0.500000  1
  Ti  Ti10  1  0.657076  0.179374  0.478863  1
  Ti  Ti11  1  0.820626  0.342924  0.478863  1
  Ti  Ti12  1  0.500000  0.000000  0.500000  1
  Ti  Ti13  1  0.166122  0.166122  0.500000  1
  Ti  Ti14  1  0.833878  0.833878  0.500000  1
  Ti  Ti15  1  0.165870  0.165870  0.000000  1
  Ti  Ti16  1  0.834130  0.834130  0.000000  1
  Ti  Ti17  1  0.342924  0.820626  0.521137  1
  O  O18  1  0.745327  0.771124  0.736246  1
  O  O19  1  0.771124  0.745327  0.263754  1
  O  O20  1  0.072398  0.595330  0.714802  1
  O  O21  1  0.069197  0.597379  0.262761  1
  O  O22  1  0.249148  0.750852  0.714761  1
  O  O23  1  0.263004  0.736996  0.287098  1
  O  O24  1  0.404939  0.440999  0.717557  1
  O  O25  1  0.228876  0.254673  0.736246  1
  O  O26  1  0.559001  0.595061  0.717557  1
  O  O27  1  0.440999  0.404939  0.282443  1
  O  O28  1  0.595061  0.559001  0.282443  1
  O  O29  1  0.254673  0.228876  0.263754  1
  O  O30  1  0.736996  0.263004  0.712902  1
  O  O31  1  0.750852  0.249148  0.285239  1
  O  O32  1  0.597379  0.069197  0.737239  1
  O  O33  1  0.595330  0.072398  0.285198  1
  O  O34  1  0.930803  0.402621  0.737239  1
  O  O35  1  0.927602  0.404670  0.285198  1
  O  O36  1  0.894462  0.919694  0.738071  1
  O  O37  1  0.080306  0.105538  0.738071  1
  O  O38  1  0.919694  0.894462  0.261929  1
  O  O39  1  0.105538  0.080306  0.261929  1
  O  O40  1  0.404670  0.927602  0.714802  1
  O  O41  1  0.402621  0.930803  0.262761  1
