# generated using pymatgen
data_KH8O4F
_symmetry_space_group_name_H-M   'P 1'
_cell_length_a   6.65505426
_cell_length_b   13.31792373
_cell_length_c   6.82746874
_cell_angle_alpha   90.00000000
_cell_angle_beta   90.80097938
_cell_angle_gamma   90.00000000
_symmetry_Int_Tables_number   1
_chemical_formula_structural   KH8O4F
_chemical_formula_sum   'K4 H32 O16 F4'
_cell_volume   605.06970043
_cell_formula_units_Z   4
loop_
 _symmetry_equiv_pos_site_id
 _symmetry_equiv_pos_as_xyz
  1  'x, y, z'
loop_
 _atom_site_type_symbol
 _atom_site_label
 _atom_site_symmetry_multiplicity
 _atom_site_fract_x
 _atom_site_fract_y
 _atom_site_fract_z
 _atom_site_occupancy
  K  K0  1  0.002090  0.629699  0.338859  1
  K  K1  1  0.497910  0.129699  0.661141  1
  K  K2  1  0.997910  0.370301  0.661141  1
  K  K3  1  0.502090  0.870301  0.338859  1
  H  H4  1  0.980705  0.869873  0.373664  1
  H  H5  1  0.519295  0.369873  0.626336  1
  H  H6  1  0.019295  0.130127  0.626336  1
  H  H7  1  0.480705  0.630127  0.373664  1
  H  H8  1  0.443479  0.662781  0.592069  1
  H  H9  1  0.056521  0.162781  0.407931  1
  H  H10  1  0.556521  0.337219  0.407931  1
  H  H11  1  0.943479  0.837219  0.592069  1
  H  H12  1  0.263912  0.668672  0.933131  1
  H  H13  1  0.236088  0.168672  0.066869  1
  H  H14  1  0.736088  0.331328  0.066869  1
  H  H15  1  0.763912  0.831328  0.933131  1
  H  H16  1  0.098018  0.753507  0.916168  1
  H  H17  1  0.401982  0.253507  0.083832  1
  H  H18  1  0.901982  0.246493  0.083832  1
  H  H19  1  0.598018  0.746493  0.916168  1
  H  H20  1  0.977880  0.608353  0.802350  1
  H  H21  1  0.522120  0.108353  0.197650  1
  H  H22  1  0.022120  0.391647  0.197650  1
  H  H23  1  0.477880  0.891647  0.802350  1
  H  H24  1  0.254311  0.912955  0.744902  1
  H  H25  1  0.245689  0.412955  0.255098  1
  H  H26  1  0.745689  0.087045  0.255098  1
  H  H27  1  0.754311  0.587045  0.744902  1
  H  H28  1  0.415409  0.509467  0.812070  1
  H  H29  1  0.084591  0.009467  0.187930  1
  H  H30  1  0.584591  0.490533  0.187930  1
  H  H31  1  0.915409  0.990533  0.812070  1
  H  H32  1  0.097870  0.909290  0.068729  1
  H  H33  1  0.402130  0.409290  0.931271  1
  H  H34  1  0.902130  0.090710  0.931271  1
  H  H35  1  0.597870  0.590710  0.068729  1
  O  O36  1  0.399232  0.675529  0.455089  1
  O  O37  1  0.100768  0.175529  0.544911  1
  O  O38  1  0.600768  0.324471  0.544911  1
  O  O39  1  0.899232  0.824471  0.455089  1
  O  O40  1  0.123768  0.684929  0.967452  1
  O  O41  1  0.376232  0.184929  0.032548  1
  O  O42  1  0.876232  0.315071  0.032548  1
  O  O43  1  0.623768  0.815071  0.967452  1
  O  O44  1  0.392468  0.930465  0.708755  1
  O  O45  1  0.107532  0.430465  0.291245  1
  O  O46  1  0.607532  0.069535  0.291245  1
  O  O47  1  0.892468  0.569535  0.708755  1
  O  O48  1  0.128062  0.938509  0.199565  1
  O  O49  1  0.371938  0.438509  0.800435  1
  O  O50  1  0.871938  0.061491  0.800435  1
  O  O51  1  0.628062  0.561491  0.199565  1
  F  F52  1  0.510726  0.632485  0.844328  1
  F  F53  1  0.989274  0.132485  0.155672  1
  F  F54  1  0.489274  0.367515  0.155672  1
  F  F55  1  0.010726  0.867515  0.844328  1
