# generated using pymatgen
data_LiFe4(BO3)4
_symmetry_space_group_name_H-M   'P 1'
_cell_length_a   5.23620175
_cell_length_b   9.11799361
_cell_length_c   10.22588371
_cell_angle_alpha   89.96546953
_cell_angle_beta   89.64373916
_cell_angle_gamma   89.22304663
_symmetry_Int_Tables_number   1
_chemical_formula_structural   LiFe4(BO3)4
_chemical_formula_sum   'Li2 Fe8 B8 O24'
_cell_volume   488.16666467
_cell_formula_units_Z   2
loop_
 _symmetry_equiv_pos_site_id
 _symmetry_equiv_pos_as_xyz
  1  'x, y, z'
loop_
 _atom_site_type_symbol
 _atom_site_label
 _atom_site_symmetry_multiplicity
 _atom_site_fract_x
 _atom_site_fract_y
 _atom_site_fract_z
 _atom_site_occupancy
  Li  Li0  1  0.160741  0.178171  0.669383  1
  Li  Li1  1  0.189492  0.172674  0.172509  1
  Fe  Fe2  1  0.169413  0.832837  0.627501  1
  Fe  Fe3  1  0.173656  0.508632  0.126175  1
  Fe  Fe4  1  0.323264  0.991699  0.881031  1
  Fe  Fe5  1  0.331789  0.663756  0.374833  1
  Fe  Fe6  1  0.667916  0.343688  0.626406  1
  Fe  Fe7  1  0.671361  0.996500  0.127934  1
  Fe  Fe8  1  0.824654  0.156572  0.383418  1
  Fe  Fe9  1  0.828031  0.492487  0.880053  1
  B  B10  1  0.157948  0.496782  0.624936  1
  B  B11  1  0.165451  0.835566  0.130982  1
  B  B12  1  0.339998  0.992598  0.372023  1
  B  B13  1  0.329427  0.663085  0.873965  1
  B  B14  1  0.667034  0.005271  0.630798  1
  B  B15  1  0.675579  0.326961  0.126015  1
  B  B16  1  0.837841  0.499887  0.376660  1
  B  B17  1  0.815701  0.169140  0.875246  1
  O  O18  1  0.086211  0.506627  0.321029  1
  O  O19  1  0.068707  0.153811  0.852955  1
  O  O20  1  0.219810  0.786330  0.816427  1
  O  O21  1  0.254063  0.863085  0.432609  1
  O  O22  1  0.187282  0.112179  0.358643  1
  O  O23  1  0.167585  0.561113  0.934720  1
  O  O24  1  0.306668  0.372251  0.626038  1
  O  O25  1  0.308460  0.957169  0.092551  1
  O  O26  1  0.240772  0.626689  0.569038  1
  O  O27  1  0.293760  0.707344  0.173285  1
  O  O28  1  0.414604  0.344358  0.133651  1
  O  O29  1  0.404272  0.004892  0.659171  1
  O  O30  1  0.587280  0.993518  0.322171  1
  O  O31  1  0.584220  0.640543  0.874254  1
  O  O32  1  0.690335  0.299273  0.828866  1
  O  O33  1  0.768563  0.372237  0.440526  1
  O  O34  1  0.676632  0.616278  0.367650  1
  O  O35  1  0.667696  0.064533  0.938170  1
  O  O36  1  0.829931  0.437969  0.075494  1
  O  O37  1  0.820747  0.885057  0.635751  1
  O  O38  1  0.776346  0.140479  0.594705  1
  O  O39  1  0.801445  0.199749  0.167824  1
  O  O40  1  0.908575  0.842238  0.126882  1
  O  O41  1  0.914909  0.494142  0.682041  1
