# generated using pymatgen
data_Ga3NO3
_symmetry_space_group_name_H-M   'P 1'
_cell_length_a   8.24298636
_cell_length_b   8.24298636
_cell_length_c   6.36602915
_cell_angle_alpha   90.00000000
_cell_angle_beta   90.00000000
_cell_angle_gamma   120.00000000
_symmetry_Int_Tables_number   1
_chemical_formula_structural   Ga3NO3
_chemical_formula_sum   'Ga12 N4 O12'
_cell_volume   374.60055532
_cell_formula_units_Z   4
loop_
 _symmetry_equiv_pos_site_id
 _symmetry_equiv_pos_as_xyz
  1  'x, y, z'
loop_
 _atom_site_type_symbol
 _atom_site_label
 _atom_site_symmetry_multiplicity
 _atom_site_fract_x
 _atom_site_fract_y
 _atom_site_fract_z
 _atom_site_occupancy
  Ga  Ga0  1  0.504607  0.434046  0.500000  1
  Ga  Ga1  1  0.510332  0.431402  0.000000  1
  Ga  Ga2  1  0.565954  0.070560  0.500000  1
  Ga  Ga3  1  0.568598  0.078930  0.000000  1
  Ga  Ga4  1  0.921070  0.489668  0.000000  1
  Ga  Ga5  1  0.929440  0.495393  0.500000  1
  Ga  Ga6  1  0.737242  0.832317  0.257037  1
  Ga  Ga7  1  0.737242  0.832317  0.742963  1
  Ga  Ga8  1  0.095075  0.262758  0.257037  1
  Ga  Ga9  1  0.095075  0.262758  0.742963  1
  Ga  Ga10  1  0.167683  0.904925  0.742963  1
  Ga  Ga11  1  0.167683  0.904925  0.257037  1
  N  N12  1  0.666667  0.333333  0.000000  1
  N  N13  1  0.668889  0.692026  0.500000  1
  N  N14  1  0.023137  0.331111  0.500000  1
  N  N15  1  0.307974  0.976863  0.500000  1
  O  O16  1  0.359876  0.362223  0.246394  1
  O  O17  1  0.359876  0.362223  0.753606  1
  O  O18  1  0.666667  0.333333  0.500000  1
  O  O19  1  0.637777  0.997653  0.246394  1
  O  O20  1  0.637777  0.997653  0.753606  1
  O  O21  1  0.002347  0.640124  0.753606  1
  O  O22  1  0.002347  0.640124  0.246394  1
  O  O23  1  0.656846  0.699934  0.000000  1
  O  O24  1  0.043088  0.343154  0.000000  1
  O  O25  1  0.000000  0.000000  0.768264  1
  O  O26  1  0.000000  0.000000  0.231736  1
  O  O27  1  0.300066  0.956912  0.000000  1
