# generated using pymatgen
data_Li3CoPCO7
_symmetry_space_group_name_H-M   'P 1'
_cell_length_a   6.44108776
_cell_length_b   8.46663654
_cell_length_c   9.93353458
_cell_angle_alpha   95.49998161
_cell_angle_beta   90.25876216
_cell_angle_gamma   90.44556894
_symmetry_Int_Tables_number   1
_chemical_formula_structural   Li3CoPCO7
_chemical_formula_sum   'Li12 Co4 P4 C4 O28'
_cell_volume   539.20105343
_cell_formula_units_Z   4
loop_
 _symmetry_equiv_pos_site_id
 _symmetry_equiv_pos_as_xyz
  1  'x, y, z'
loop_
 _atom_site_type_symbol
 _atom_site_label
 _atom_site_symmetry_multiplicity
 _atom_site_fract_x
 _atom_site_fract_y
 _atom_site_fract_z
 _atom_site_occupancy
  Li  Li0  1  0.741874  0.894055  0.393194  1
  Li  Li1  1  0.744922  0.899092  0.881280  1
  Li  Li2  1  0.508568  0.723701  0.137115  1
  Li  Li3  1  0.997885  0.726620  0.613569  1
  Li  Li4  1  0.511018  0.723710  0.609755  1
  Li  Li5  1  0.252219  0.651160  0.398469  1
  Li  Li6  1  0.472744  0.282169  0.375022  1
  Li  Li7  1  0.028229  0.283668  0.376303  1
  Li  Li8  1  0.476403  0.277403  0.871408  1
  Li  Li9  1  0.018781  0.274576  0.871469  1
  Li  Li10  1  0.250800  0.100158  0.114618  1
  Li  Li11  1  0.250275  0.103490  0.610345  1
  Co  Co12  1  0.995810  0.730460  0.143630  1
  Co  Co13  1  0.252797  0.667214  0.893809  1
  Co  Co14  1  0.750795  0.330893  0.103264  1
  Co  Co15  1  0.751480  0.331724  0.604115  1
  P  P16  1  0.752523  0.590487  0.362160  1
  P  P17  1  0.751037  0.586268  0.865422  1
  P  P18  1  0.248583  0.409041  0.140742  1
  P  P19  1  0.251482  0.415739  0.639357  1
  C  C20  1  0.242389  0.962602  0.347647  1
  C  C21  1  0.246860  0.961406  0.848058  1
  C  C22  1  0.750791  0.038371  0.151326  1
  C  C23  1  0.749084  0.038451  0.650624  1
  O  O24  1  0.250461  0.930636  0.470445  1
  O  O25  1  0.755994  0.893228  0.188692  1
  O  O26  1  0.252997  0.929218  0.972951  1
  O  O27  1  0.236542  0.846712  0.248118  1
  O  O28  1  0.746178  0.892639  0.680699  1
  O  O29  1  0.239986  0.841733  0.754913  1
  O  O30  1  0.941938  0.693559  0.411148  1
  O  O31  1  0.560158  0.689951  0.405107  1
  O  O32  1  0.939175  0.690681  0.926771  1
  O  O33  1  0.564728  0.691204  0.917200  1
  O  O34  1  0.247142  0.577571  0.088887  1
  O  O35  1  0.762587  0.568078  0.200832  1
  O  O36  1  0.254332  0.579029  0.586659  1
  O  O37  1  0.760633  0.567959  0.708864  1
  O  O38  1  0.249001  0.427753  0.296020  1
  O  O39  1  0.750316  0.423091  0.412439  1
  O  O40  1  0.249917  0.433559  0.797990  1
  O  O41  1  0.749038  0.419817  0.916164  1
  O  O42  1  0.061863  0.304959  0.083136  1
  O  O43  1  0.437523  0.311559  0.082967  1
  O  O44  1  0.438156  0.308984  0.588628  1
  O  O45  1  0.063717  0.308796  0.586236  1
  O  O46  1  0.741139  0.157909  0.243060  1
  O  O47  1  0.245746  0.108351  0.314986  1
  O  O48  1  0.752273  0.156205  0.746292  1
  O  O49  1  0.753657  0.064960  0.026223  1
  O  O50  1  0.249025  0.105932  0.815110  1
  O  O51  1  0.748430  0.073466  0.526766  1
