# generated using pymatgen
data_Li2Cu2F5
_symmetry_space_group_name_H-M   'P 1'
_cell_length_a   5.56381528
_cell_length_b   5.56381528
_cell_length_c   7.25360087
_cell_angle_alpha   77.42876045
_cell_angle_beta   102.57123955
_cell_angle_gamma   88.91202983
_symmetry_Int_Tables_number   1
_chemical_formula_structural   Li2Cu2F5
_chemical_formula_sum   'Li4 Cu4 F10'
_cell_volume   213.38587442
_cell_formula_units_Z   2
loop_
 _symmetry_equiv_pos_site_id
 _symmetry_equiv_pos_as_xyz
  1  'x, y, z'
loop_
 _atom_site_type_symbol
 _atom_site_label
 _atom_site_symmetry_multiplicity
 _atom_site_fract_x
 _atom_site_fract_y
 _atom_site_fract_z
 _atom_site_occupancy
  Li  Li0  1  0.275199  0.253679  0.020652  1
  Li  Li1  1  0.253679  0.275199  0.479348  1
  Li  Li2  1  0.746321  0.724801  0.520652  1
  Li  Li3  1  0.724801  0.746321  0.979348  1
  Cu  Cu4  1  0.790584  0.201942  0.120768  1
  Cu  Cu5  1  0.798058  0.209416  0.620768  1
  Cu  Cu6  1  0.201942  0.790584  0.379232  1
  Cu  Cu7  1  0.209416  0.798058  0.879232  1
  F  F8  1  0.500000  0.000000  0.000000  1
  F  F9  1  0.715001  0.073397  0.379681  1
  F  F10  1  0.160185  0.160185  0.250000  1
  F  F11  1  0.500000  0.500000  0.000000  1
  F  F12  1  0.926603  0.284999  0.879681  1
  F  F13  1  0.000000  0.500000  0.500000  1
  F  F14  1  0.500000  0.500000  0.500000  1
  F  F15  1  0.073397  0.715001  0.120319  1
  F  F16  1  0.839815  0.839815  0.750000  1
  F  F17  1  0.284999  0.926603  0.620319  1
