# generated using pymatgen
data_Li2MnV3O8
_symmetry_space_group_name_H-M   'P 1'
_cell_length_a   8.19129427
_cell_length_b   8.52424689
_cell_length_c   8.70641614
_cell_angle_alpha   90.00000000
_cell_angle_beta   90.00000000
_cell_angle_gamma   90.00000000
_symmetry_Int_Tables_number   1
_chemical_formula_structural   Li2MnV3O8
_chemical_formula_sum   'Li8 Mn4 V12 O32'
_cell_volume   607.92215331
_cell_formula_units_Z   4
loop_
 _symmetry_equiv_pos_site_id
 _symmetry_equiv_pos_as_xyz
  1  'x, y, z'
loop_
 _atom_site_type_symbol
 _atom_site_label
 _atom_site_symmetry_multiplicity
 _atom_site_fract_x
 _atom_site_fract_y
 _atom_site_fract_z
 _atom_site_occupancy
  Li  Li0  1  0.745631  0.747062  0.747628  1
  Li  Li1  1  0.504601  0.502073  0.500442  1
  Li  Li2  1  0.495399  0.002073  0.999558  1
  Li  Li3  1  0.254369  0.247062  0.752372  1
  Li  Li4  1  0.245631  0.752938  0.252372  1
  Li  Li5  1  0.004601  0.997927  0.499558  1
  Li  Li6  1  0.995399  0.497927  0.000442  1
  Li  Li7  1  0.754369  0.252938  0.247628  1
  Mn  Mn8  1  0.626788  0.374539  0.876890  1
  Mn  Mn9  1  0.373212  0.874539  0.623110  1
  Mn  Mn10  1  0.126788  0.125461  0.123110  1
  Mn  Mn11  1  0.873212  0.625461  0.376890  1
  V  V12  1  0.627473  0.123484  0.620417  1
  V  V13  1  0.624178  0.876079  0.368799  1
  V  V14  1  0.623227  0.627314  0.122784  1
  V  V15  1  0.376773  0.127314  0.377216  1
  V  V16  1  0.375822  0.376079  0.131201  1
  V  V17  1  0.372527  0.623484  0.879583  1
  V  V18  1  0.127473  0.376516  0.379583  1
  V  V19  1  0.124178  0.623921  0.631201  1
  V  V20  1  0.123227  0.872686  0.877216  1
  V  V21  1  0.876773  0.372686  0.622784  1
  V  V22  1  0.875822  0.123921  0.868799  1
  V  V23  1  0.872527  0.876516  0.120417  1
  O  O24  1  0.647920  0.361685  0.631040  1
  O  O25  1  0.645222  0.130509  0.862647  1
  O  O26  1  0.627182  0.861696  0.139273  1
  O  O27  1  0.611543  0.886994  0.604018  1
  O  O28  1  0.635462  0.641999  0.359651  1
  O  O29  1  0.610815  0.113063  0.378590  1
  O  O30  1  0.608225  0.391746  0.122195  1
  O  O31  1  0.614777  0.616970  0.895661  1
  O  O32  1  0.385223  0.116970  0.604339  1
  O  O33  1  0.391775  0.891746  0.377805  1
  O  O34  1  0.389185  0.613063  0.121410  1
  O  O35  1  0.364538  0.141999  0.140349  1
  O  O36  1  0.388457  0.386994  0.895982  1
  O  O37  1  0.372818  0.361696  0.360727  1
  O  O38  1  0.354778  0.630509  0.637353  1
  O  O39  1  0.352080  0.861685  0.868960  1
  O  O40  1  0.147920  0.138315  0.368960  1
  O  O41  1  0.145222  0.369491  0.137353  1
  O  O42  1  0.127182  0.638304  0.860727  1
  O  O43  1  0.111543  0.613006  0.395982  1
  O  O44  1  0.135462  0.858001  0.640349  1
  O  O45  1  0.110815  0.386937  0.621410  1
  O  O46  1  0.108225  0.108254  0.877805  1
  O  O47  1  0.114777  0.883030  0.104339  1
  O  O48  1  0.885223  0.383030  0.395661  1
  O  O49  1  0.891775  0.608254  0.622195  1
  O  O50  1  0.889185  0.886937  0.878590  1
  O  O51  1  0.864538  0.358001  0.859651  1
  O  O52  1  0.888457  0.113006  0.104018  1
  O  O53  1  0.872818  0.138304  0.639273  1
  O  O54  1  0.854778  0.869491  0.362647  1
  O  O55  1  0.852080  0.638315  0.131040  1
