# generated using pymatgen
data_Na2B4H8O11
_symmetry_space_group_name_H-M   'P 1'
_cell_length_a   7.12312111
_cell_length_b   9.19362638
_cell_length_c   15.79437573
_cell_angle_alpha   90.00000000
_cell_angle_beta   108.92466150
_cell_angle_gamma   90.00000000
_symmetry_Int_Tables_number   1
_chemical_formula_structural   Na2B4H8O11
_chemical_formula_sum   'Na8 B16 H32 O44'
_cell_volume   978.42134753
_cell_formula_units_Z   4
loop_
 _symmetry_equiv_pos_site_id
 _symmetry_equiv_pos_as_xyz
  1  'x, y, z'
loop_
 _atom_site_type_symbol
 _atom_site_label
 _atom_site_symmetry_multiplicity
 _atom_site_fract_x
 _atom_site_fract_y
 _atom_site_fract_z
 _atom_site_occupancy
  Na  Na0  1  0.319465  0.964180  0.810064  1
  Na  Na1  1  0.680535  0.464180  0.689936  1
  Na  Na2  1  0.680535  0.035820  0.189936  1
  Na  Na3  1  0.319465  0.535820  0.310064  1
  Na  Na4  1  0.188243  0.870804  0.572440  1
  Na  Na5  1  0.811757  0.370804  0.927560  1
  Na  Na6  1  0.811757  0.129196  0.427560  1
  Na  Na7  1  0.188243  0.629196  0.072440  1
  B  B8  1  0.554013  0.670680  0.921025  1
  B  B9  1  0.445987  0.170680  0.578975  1
  B  B10  1  0.445987  0.329320  0.078975  1
  B  B11  1  0.554013  0.829320  0.421025  1
  B  B12  1  0.553832  0.733524  0.767659  1
  B  B13  1  0.446168  0.233524  0.732341  1
  B  B14  1  0.446168  0.266476  0.232341  1
  B  B15  1  0.553832  0.766476  0.267659  1
  B  B16  1  0.572189  0.982171  0.699480  1
  B  B17  1  0.427811  0.482171  0.800520  1
  B  B18  1  0.427811  0.017829  0.300520  1
  B  B19  1  0.572189  0.517829  0.199480  1
  B  B20  1  0.867205  0.816773  0.741363  1
  B  B21  1  0.132795  0.316773  0.758637  1
  B  B22  1  0.132795  0.183227  0.258637  1
  B  B23  1  0.867205  0.683227  0.241363  1
  H  H24  1  0.263364  0.601753  0.633107  1
  H  H25  1  0.736636  0.101753  0.866893  1
  H  H26  1  0.736636  0.398247  0.366893  1
  H  H27  1  0.263364  0.898247  0.133107  1
  H  H28  1  0.109348  0.694180  0.751630  1
  H  H29  1  0.890652  0.194180  0.748370  1
  H  H30  1  0.890652  0.305820  0.248370  1
  H  H31  1  0.109348  0.805820  0.251630  1
  H  H32  1  0.949986  0.624606  0.873981  1
  H  H33  1  0.050014  0.124606  0.626019  1
  H  H34  1  0.050014  0.375394  0.126019  1
  H  H35  1  0.949986  0.875394  0.373981  1
  H  H36  1  0.564124  0.871591  0.545603  1
  H  H37  1  0.435876  0.371591  0.954397  1
  H  H38  1  0.435876  0.128409  0.454397  1
  H  H39  1  0.564124  0.628409  0.045603  1
  H  H40  1  0.119428  0.517313  0.878721  1
  H  H41  1  0.880572  0.017313  0.621279  1
  H  H42  1  0.880572  0.482687  0.121279  1
  H  H43  1  0.119428  0.982687  0.378721  1
  H  H44  1  0.707133  0.616820  0.544311  1
  H  H45  1  0.292867  0.116820  0.955689  1
  H  H46  1  0.292867  0.383180  0.455689  1
  H  H47  1  0.707133  0.883180  0.044311  1
  H  H48  1  0.214443  0.969515  0.984818  1
  H  H49  1  0.785557  0.469515  0.515182  1
  H  H50  1  0.785557  0.030485  0.015182  1
  H  H51  1  0.214443  0.530485  0.484818  1
  H  H52  1  0.033181  0.584127  0.577485  1
  H  H53  1  0.966819  0.084127  0.922515  1
  H  H54  1  0.966819  0.415873  0.422515  1
  H  H55  1  0.033181  0.915873  0.077485  1
  O  O56  1  0.514733  0.526950  0.897217  1
  O  O57  1  0.485267  0.026950  0.602783  1
  O  O58  1  0.485267  0.473050  0.102783  1
  O  O59  1  0.514733  0.973050  0.397217  1
  O  O60  1  0.443027  0.598294  0.739410  1
  O  O61  1  0.556973  0.098294  0.760590  1
  O  O62  1  0.556973  0.401706  0.260590  1
  O  O63  1  0.443027  0.901706  0.239410  1
  O  O64  1  0.768053  0.708206  0.768920  1
  O  O65  1  0.231947  0.208206  0.731080  1
  O  O66  1  0.231947  0.291794  0.231080  1
  O  O67  1  0.768053  0.791794  0.268920  1
  O  O68  1  0.465619  0.850616  0.707070  1
  O  O69  1  0.534381  0.350616  0.792930  1
  O  O70  1  0.534381  0.149384  0.292930  1
  O  O71  1  0.465619  0.649384  0.207070  1
  O  O72  1  0.789033  0.951735  0.713537  1
  O  O73  1  0.210967  0.451735  0.786463  1
  O  O74  1  0.210967  0.048265  0.286463  1
  O  O75  1  0.789033  0.548265  0.213537  1
  O  O76  1  0.060583  0.794112  0.740563  1
  O  O77  1  0.939417  0.294112  0.759437  1
  O  O78  1  0.939417  0.205888  0.259437  1
  O  O79  1  0.060583  0.705888  0.240563  1
  O  O80  1  0.587294  0.789308  0.509536  1
  O  O81  1  0.412706  0.289308  0.990464  1
  O  O82  1  0.412706  0.210692  0.490464  1
  O  O83  1  0.587294  0.710692  0.009536  1
  O  O84  1  0.785398  0.527860  0.568447  1
  O  O85  1  0.214602  0.027860  0.931553  1
  O  O86  1  0.214602  0.472140  0.431553  1
  O  O87  1  0.785398  0.972140  0.068447  1
  O  O88  1  0.564668  0.774993  0.861381  1
  O  O89  1  0.435332  0.274993  0.638619  1
  O  O90  1  0.435332  0.225007  0.138619  1
  O  O91  1  0.564668  0.725007  0.361381  1
  O  O92  1  0.044260  0.558128  0.916079  1
  O  O93  1  0.955740  0.058128  0.583921  1
  O  O94  1  0.955740  0.441872  0.083921  1
  O  O95  1  0.044260  0.941872  0.416079  1
  O  O96  1  0.161664  0.618806  0.572854  1
  O  O97  1  0.838336  0.118806  0.927146  1
  O  O98  1  0.838336  0.381194  0.427146  1
  O  O99  1  0.161664  0.881194  0.072854  1
