# generated using pymatgen
data_Na2Ni3O5
_symmetry_space_group_name_H-M   'P 1'
_cell_length_a   5.17042366
_cell_length_b   6.11480134
_cell_length_c   6.92372837
_cell_angle_alpha   104.76177140
_cell_angle_beta   98.73178601
_cell_angle_gamma   106.17568630
_symmetry_Int_Tables_number   1
_chemical_formula_structural   Na2Ni3O5
_chemical_formula_sum   'Na4 Ni6 O10'
_cell_volume   197.35995901
_cell_formula_units_Z   2
loop_
 _symmetry_equiv_pos_site_id
 _symmetry_equiv_pos_as_xyz
  1  'x, y, z'
loop_
 _atom_site_type_symbol
 _atom_site_label
 _atom_site_symmetry_multiplicity
 _atom_site_fract_x
 _atom_site_fract_y
 _atom_site_fract_z
 _atom_site_occupancy
  Na  Na0  1  0.600538  0.699180  0.205405  1
  Na  Na1  1  0.399462  0.300820  0.794595  1
  Na  Na2  1  0.206707  0.903201  0.406137  1
  Na  Na3  1  0.793293  0.096799  0.593863  1
  Ni  Ni4  1  0.600525  0.202388  0.193497  1
  Ni  Ni5  1  0.399475  0.797612  0.806503  1
  Ni  Ni6  1  0.202784  0.400374  0.393731  1
  Ni  Ni7  1  0.000000  0.000000  0.000000  1
  Ni  Ni8  1  0.000000  0.500000  0.000000  1
  Ni  Ni9  1  0.797216  0.599626  0.606269  1
  O  O10  1  0.734282  0.684786  0.908984  1
  O  O11  1  0.722783  0.133017  0.919012  1
  O  O12  1  0.494070  0.708736  0.519618  1
  O  O13  1  0.505930  0.291264  0.480382  1
  O  O14  1  0.277217  0.866983  0.080988  1
  O  O15  1  0.265718  0.315214  0.091016  1
  O  O16  1  0.070923  0.918256  0.727982  1
  O  O17  1  0.076589  0.475306  0.700586  1
  O  O18  1  0.929077  0.081744  0.272018  1
  O  O19  1  0.923411  0.524694  0.299414  1
