# generated using pymatgen
data_Ti3Mn3Cr2O16
_symmetry_space_group_name_H-M   'P 1'
_cell_length_a   5.86192605
_cell_length_b   5.86192605
_cell_length_c   8.90693507
_cell_angle_alpha   89.84128043
_cell_angle_beta   90.15871957
_cell_angle_gamma   119.88265383
_symmetry_Int_Tables_number   1
_chemical_formula_structural   Ti3Mn3Cr2O16
_chemical_formula_sum   'Ti3 Mn3 Cr2 O16'
_cell_volume   265.36869357
_cell_formula_units_Z   1
loop_
 _symmetry_equiv_pos_site_id
 _symmetry_equiv_pos_as_xyz
  1  'x, y, z'
loop_
 _atom_site_type_symbol
 _atom_site_label
 _atom_site_symmetry_multiplicity
 _atom_site_fract_x
 _atom_site_fract_y
 _atom_site_fract_z
 _atom_site_occupancy
  Ti  Ti0  1  0.670341  0.831276  0.209831  1
  Ti  Ti1  1  0.168724  0.329659  0.209831  1
  Ti  Ti2  1  0.840610  0.159390  0.707475  1
  Mn  Mn3  1  0.171550  0.828450  0.209799  1
  Mn  Mn4  1  0.830184  0.659587  0.710236  1
  Mn  Mn5  1  0.340413  0.169816  0.710236  1
  Cr  Cr6  1  0.328243  0.671757  0.487644  1
  Cr  Cr7  1  0.666112  0.333888  0.985189  1
  O  O8  1  0.660558  0.832631  0.602212  1
  O  O9  1  0.473755  0.526245  0.343929  1
  O  O10  1  0.332202  0.667798  0.097981  1
  O  O11  1  0.004301  0.995699  0.315201  1
  O  O12  1  0.004366  0.995634  0.815726  1
  O  O13  1  0.167369  0.339442  0.602212  1
  O  O14  1  0.470827  0.955200  0.339822  1
  O  O15  1  0.044800  0.529173  0.339822  1
  O  O16  1  0.828999  0.171001  0.104900  1
  O  O17  1  0.171474  0.828526  0.603960  1
  O  O18  1  0.949911  0.480433  0.840977  1
  O  O19  1  0.519567  0.050089  0.840977  1
  O  O20  1  0.663300  0.336700  0.600456  1
  O  O21  1  0.828015  0.655912  0.101243  1
  O  O22  1  0.520097  0.479903  0.834833  1
  O  O23  1  0.344088  0.171985  0.101243  1
