# generated using pymatgen
data_TiV3(PO4)6
_symmetry_space_group_name_H-M   'P 1'
_cell_length_a   8.75433677
_cell_length_b   8.75433677
_cell_length_c   8.75433677
_cell_angle_alpha   58.50736605
_cell_angle_beta   58.50736605
_cell_angle_gamma   58.50736605
_symmetry_Int_Tables_number   1
_chemical_formula_structural   TiV3(PO4)6
_chemical_formula_sum   'Ti1 V3 P6 O24'
_cell_volume   458.21277198
_cell_formula_units_Z   1
loop_
 _symmetry_equiv_pos_site_id
 _symmetry_equiv_pos_as_xyz
  1  'x, y, z'
loop_
 _atom_site_type_symbol
 _atom_site_label
 _atom_site_symmetry_multiplicity
 _atom_site_fract_x
 _atom_site_fract_y
 _atom_site_fract_z
 _atom_site_occupancy
  Ti  Ti0  1  0.139792  0.139792  0.139792  1
  V  V1  1  0.860222  0.860222  0.860222  1
  V  V2  1  0.641485  0.641485  0.641485  1
  V  V3  1  0.359638  0.359638  0.359638  1
  P  P4  1  0.250889  0.533080  0.966415  1
  P  P5  1  0.966415  0.250889  0.533080  1
  P  P6  1  0.533080  0.966415  0.250889  1
  P  P7  1  0.469719  0.032015  0.747517  1
  P  P8  1  0.032015  0.747517  0.469719  1
  P  P9  1  0.747517  0.469719  0.032015  1
  O  O10  1  0.714800  0.497782  0.863353  1
  O  O11  1  0.497782  0.863353  0.714800  1
  O  O12  1  0.071284  0.716140  0.940177  1
  O  O13  1  0.863353  0.714800  0.497782  1
  O  O14  1  0.421162  0.567026  0.784919  1
  O  O15  1  0.220870  0.362820  0.994005  1
  O  O16  1  0.940177  0.071284  0.716140  1
  O  O17  1  0.784919  0.421162  0.567026  1
  O  O18  1  0.567026  0.784919  0.421162  1
  O  O19  1  0.644338  0.004780  0.775037  1
  O  O20  1  0.288419  0.062108  0.919375  1
  O  O21  1  0.004780  0.775037  0.644338  1
  O  O22  1  0.994005  0.220870  0.362820  1
  O  O23  1  0.716140  0.940177  0.071284  1
  O  O24  1  0.362820  0.994005  0.220870  1
  O  O25  1  0.441946  0.215350  0.569286  1
  O  O26  1  0.215350  0.569286  0.441946  1
  O  O27  1  0.062108  0.919375  0.288419  1
  O  O28  1  0.775037  0.644338  0.004780  1
  O  O29  1  0.569286  0.441946  0.215350  1
  O  O30  1  0.143002  0.276633  0.504620  1
  O  O31  1  0.919375  0.288419  0.062108  1
  O  O32  1  0.504620  0.143002  0.276633  1
  O  O33  1  0.276633  0.504620  0.143002  1
