# generated using pymatgen
data_Li4Ti5Ni3O16
_symmetry_space_group_name_H-M   'P 1'
_cell_length_a   5.90396743
_cell_length_b   5.90396743
_cell_length_c   9.55795031
_cell_angle_alpha   88.82571855
_cell_angle_beta   91.17428145
_cell_angle_gamma   120.88695779
_symmetry_Int_Tables_number   1
_chemical_formula_structural   Li4Ti5Ni3O16
_chemical_formula_sum   'Li4 Ti5 Ni3 O16'
_cell_volume   285.83236592
_cell_formula_units_Z   1
loop_
 _symmetry_equiv_pos_site_id
 _symmetry_equiv_pos_as_xyz
  1  'x, y, z'
loop_
 _atom_site_type_symbol
 _atom_site_label
 _atom_site_symmetry_multiplicity
 _atom_site_fract_x
 _atom_site_fract_y
 _atom_site_fract_z
 _atom_site_occupancy
  Li  Li0  1  0.660972  0.339028  0.896227  1
  Li  Li1  1  0.990592  0.009408  0.991880  1
  Li  Li2  1  0.000846  0.999154  0.494349  1
  Li  Li3  1  0.338962  0.661038  0.401601  1
  Ti  Ti4  1  0.349364  0.156173  0.220903  1
  Ti  Ti5  1  0.666548  0.333452  0.501024  1
  Ti  Ti6  1  0.843827  0.650636  0.220903  1
  Ti  Ti7  1  0.173094  0.826906  0.729881  1
  Ti  Ti8  1  0.339804  0.660196  0.996576  1
  Ni  Ni9  1  0.831451  0.168549  0.208816  1
  Ni  Ni10  1  0.167855  0.338791  0.710470  1
  Ni  Ni11  1  0.661209  0.832145  0.710470  1
  O  O12  1  0.341881  0.161219  0.592358  1
  O  O13  1  0.521390  0.478610  0.337094  1
  O  O14  1  0.655445  0.344555  0.102469  1
  O  O15  1  0.005744  0.994256  0.304531  1
  O  O16  1  0.994750  0.005250  0.801651  1
  O  O17  1  0.838781  0.658119  0.592358  1
  O  O18  1  0.506110  0.031573  0.343440  1
  O  O19  1  0.968427  0.493890  0.343440  1
  O  O20  1  0.167419  0.832581  0.097867  1
  O  O21  1  0.838282  0.161718  0.594037  1
  O  O22  1  0.027528  0.525875  0.842305  1
  O  O23  1  0.474125  0.972472  0.842305  1
  O  O24  1  0.335813  0.664187  0.612533  1
  O  O25  1  0.178128  0.339644  0.090083  1
  O  O26  1  0.473925  0.526075  0.835972  1
  O  O27  1  0.660356  0.821872  0.090083  1
