# generated using pymatgen
data_Na5Ni2P2(CO7)2
_symmetry_space_group_name_H-M   'P 1'
_cell_length_a   10.25069220
_cell_length_b   6.62726654
_cell_length_c   10.44057088
_cell_angle_alpha   90.00000000
_cell_angle_beta   119.13590250
_cell_angle_gamma   90.00000000
_symmetry_Int_Tables_number   1
_chemical_formula_structural   Na5Ni2P2(CO7)2
_chemical_formula_sum   'Na10 Ni4 P4 C4 O28'
_cell_volume   619.52456394
_cell_formula_units_Z   2
loop_
 _symmetry_equiv_pos_site_id
 _symmetry_equiv_pos_as_xyz
  1  'x, y, z'
loop_
 _atom_site_type_symbol
 _atom_site_label
 _atom_site_symmetry_multiplicity
 _atom_site_fract_x
 _atom_site_fract_y
 _atom_site_fract_z
 _atom_site_occupancy
  Na  Na0  1  0.738723  0.486223  0.004027  1
  Na  Na1  1  0.738723  0.013777  0.004027  1
  Na  Na2  1  0.261277  0.986223  0.995973  1
  Na  Na3  1  0.261277  0.513777  0.995973  1
  Na  Na4  1  0.083980  0.750000  0.185330  1
  Na  Na5  1  0.916020  0.250000  0.814670  1
  Na  Na6  1  0.744996  0.005536  0.489704  1
  Na  Na7  1  0.744996  0.494464  0.489704  1
  Na  Na8  1  0.255004  0.994464  0.510296  1
  Na  Na9  1  0.255004  0.505536  0.510296  1
  Ni  Ni10  1  0.646962  0.750000  0.182437  1
  Ni  Ni11  1  0.353038  0.250000  0.817563  1
  Ni  Ni12  1  0.650540  0.750000  0.685153  1
  Ni  Ni13  1  0.349460  0.250000  0.314847  1
  P  P14  1  0.578620  0.250000  0.184063  1
  P  P15  1  0.421380  0.750000  0.815937  1
  P  P16  1  0.579802  0.250000  0.682445  1
  P  P17  1  0.420198  0.750000  0.317555  1
  C  C18  1  0.069281  0.250000  0.137674  1
  C  C19  1  0.071960  0.250000  0.650691  1
  C  C20  1  0.930719  0.750000  0.862326  1
  C  C21  1  0.928040  0.750000  0.349309  1
  O  O22  1  0.861476  0.750000  0.205299  1
  O  O23  1  0.673433  0.061609  0.194021  1
  O  O24  1  0.673433  0.438391  0.194021  1
  O  O25  1  0.572189  0.750000  0.960974  1
  O  O26  1  0.549197  0.250000  0.816150  1
  O  O27  1  0.450803  0.750000  0.183850  1
  O  O28  1  0.427811  0.250000  0.039026  1
  O  O29  1  0.326567  0.938391  0.805979  1
  O  O30  1  0.326567  0.561609  0.805979  1
  O  O31  1  0.163107  0.250000  0.086242  1
  O  O32  1  0.160133  0.250000  0.594530  1
  O  O33  1  0.138524  0.250000  0.794701  1
  O  O34  1  0.072020  0.750000  0.949397  1
  O  O35  1  0.069923  0.750000  0.422529  1
  O  O36  1  0.927980  0.250000  0.050603  1
  O  O37  1  0.930077  0.250000  0.577471  1
  O  O38  1  0.871792  0.750000  0.720640  1
  O  O39  1  0.836893  0.750000  0.913758  1
  O  O40  1  0.839867  0.750000  0.405470  1
  O  O41  1  0.678773  0.063587  0.695705  1
  O  O42  1  0.678773  0.436413  0.695705  1
  O  O43  1  0.571835  0.750000  0.461220  1
  O  O44  1  0.548224  0.250000  0.317743  1
  O  O45  1  0.451776  0.750000  0.682257  1
  O  O46  1  0.428165  0.250000  0.538780  1
  O  O47  1  0.321227  0.563587  0.304295  1
  O  O48  1  0.321227  0.936413  0.304295  1
  O  O49  1  0.128208  0.250000  0.279360  1
