# generated using pymatgen
data_BaCaI4
_symmetry_space_group_name_H-M   'P 1'
_cell_length_a   8.56788936
_cell_length_b   8.33361796
_cell_length_c   17.58131972
_cell_angle_alpha   90.00000000
_cell_angle_beta   107.58050205
_cell_angle_gamma   90.00000000
_symmetry_Int_Tables_number   1
_chemical_formula_structural   BaCaI4
_chemical_formula_sum   'Ba4 Ca4 I16'
_cell_volume   1196.70069951
_cell_formula_units_Z   4
loop_
 _symmetry_equiv_pos_site_id
 _symmetry_equiv_pos_as_xyz
  1  'x, y, z'
loop_
 _atom_site_type_symbol
 _atom_site_label
 _atom_site_symmetry_multiplicity
 _atom_site_fract_x
 _atom_site_fract_y
 _atom_site_fract_z
 _atom_site_occupancy
  Ba  Ba0  1  0.281582  0.046599  0.842716  1
  Ba  Ba1  1  0.281582  0.453401  0.342716  1
  Ba  Ba2  1  0.718418  0.546599  0.657284  1
  Ba  Ba3  1  0.718418  0.953401  0.157284  1
  Ca  Ca4  1  0.187390  0.345780  0.596566  1
  Ca  Ca5  1  0.187390  0.154220  0.096566  1
  Ca  Ca6  1  0.812610  0.845780  0.903434  1
  Ca  Ca7  1  0.812610  0.654220  0.403434  1
  I  I8  1  0.959087  0.188663  0.677415  1
  I  I9  1  0.959087  0.311337  0.177415  1
  I  I10  1  0.047231  0.689691  0.580249  1
  I  I11  1  0.047231  0.810309  0.080249  1
  I  I12  1  0.461165  0.357191  0.758987  1
  I  I13  1  0.461514  0.260134  0.524333  1
  I  I14  1  0.461165  0.142809  0.258987  1
  I  I15  1  0.538486  0.760134  0.975667  1
  I  I16  1  0.461514  0.239866  0.024333  1
  I  I17  1  0.538835  0.857191  0.741013  1
  I  I18  1  0.538486  0.739866  0.475667  1
  I  I19  1  0.538835  0.642809  0.241013  1
  I  I20  1  0.952769  0.189691  0.919751  1
  I  I21  1  0.952769  0.310309  0.419751  1
  I  I22  1  0.040913  0.688663  0.822585  1
  I  I23  1  0.040913  0.811337  0.322585  1
