# generated using pymatgen
data_Na2Cr2O7
_symmetry_space_group_name_H-M   'P 1'
_cell_length_a   7.04896267
_cell_length_b   7.11592066
_cell_length_c   7.34070526
_cell_angle_alpha   113.99301496
_cell_angle_beta   89.38114032
_cell_angle_gamma   94.92434750
_symmetry_Int_Tables_number   1
_chemical_formula_structural   Na2Cr2O7
_chemical_formula_sum   'Na4 Cr4 O14'
_cell_volume   335.03448431
_cell_formula_units_Z   2
loop_
 _symmetry_equiv_pos_site_id
 _symmetry_equiv_pos_as_xyz
  1  'x, y, z'
loop_
 _atom_site_type_symbol
 _atom_site_label
 _atom_site_symmetry_multiplicity
 _atom_site_fract_x
 _atom_site_fract_y
 _atom_site_fract_z
 _atom_site_occupancy
  Na  Na0  1  0.616129  0.268179  0.338848  1
  Na  Na1  1  0.383871  0.731821  0.661152  1
  Na  Na2  1  0.844748  0.132721  0.764702  1
  Na  Na3  1  0.155252  0.867279  0.235298  1
  Cr  Cr4  1  0.881738  0.655768  0.815533  1
  Cr  Cr5  1  0.118262  0.344232  0.184467  1
  Cr  Cr6  1  0.660730  0.762882  0.240800  1
  Cr  Cr7  1  0.339270  0.237118  0.759200  1
  O  O8  1  0.865780  0.420211  0.643330  1
  O  O9  1  0.134220  0.579789  0.356670  1
  O  O10  1  0.736926  0.796111  0.764484  1
  O  O11  1  0.263074  0.203889  0.235516  1
  O  O12  1  0.099590  0.765674  0.846203  1
  O  O13  1  0.900410  0.234326  0.153797  1
  O  O14  1  0.576758  0.601465  0.334921  1
  O  O15  1  0.423242  0.398535  0.665079  1
  O  O16  1  0.777335  0.964983  0.413337  1
  O  O17  1  0.222665  0.035017  0.586663  1
  O  O18  1  0.486942  0.841329  0.152196  1
  O  O19  1  0.513058  0.158671  0.847804  1
  O  O20  1  0.822791  0.642984  0.048740  1
  O  O21  1  0.177209  0.357016  0.951260  1
