# generated using pymatgen
data_Li4Cu2Ni3Sb3O16
_symmetry_space_group_name_H-M   'P 1'
_cell_length_a   6.06382599
_cell_length_b   6.06382599
_cell_length_c   9.66925869
_cell_angle_alpha   87.86813374
_cell_angle_beta   92.13186626
_cell_angle_gamma   120.37784792
_symmetry_Int_Tables_number   1
_chemical_formula_structural   Li4Cu2Ni3Sb3O16
_chemical_formula_sum   'Li4 Cu2 Ni3 Sb3 O16'
_cell_volume   306.44433186
_cell_formula_units_Z   1
loop_
 _symmetry_equiv_pos_site_id
 _symmetry_equiv_pos_as_xyz
  1  'x, y, z'
loop_
 _atom_site_type_symbol
 _atom_site_label
 _atom_site_symmetry_multiplicity
 _atom_site_fract_x
 _atom_site_fract_y
 _atom_site_fract_z
 _atom_site_occupancy
  Li  Li0  1  0.670315  0.329685  0.885680  1
  Li  Li1  1  0.974068  0.025932  0.985938  1
  Li  Li2  1  0.986817  0.013183  0.503779  1
  Li  Li3  1  0.328591  0.671409  0.402411  1
  Cu  Cu4  1  0.674865  0.325135  0.495025  1
  Cu  Cu5  1  0.351518  0.648482  0.974902  1
  Ni  Ni6  1  0.829104  0.170896  0.215828  1
  Ni  Ni7  1  0.174135  0.336945  0.713270  1
  Ni  Ni8  1  0.663055  0.825865  0.713270  1
  Sb  Sb9  1  0.335887  0.171116  0.214435  1
  Sb  Sb10  1  0.828884  0.664113  0.214435  1
  Sb  Sb11  1  0.173322  0.826678  0.713593  1
  O  O12  1  0.331651  0.158617  0.599636  1
  O  O13  1  0.512030  0.487970  0.335172  1
  O  O14  1  0.659641  0.340359  0.100208  1
  O  O15  1  0.001630  0.998370  0.318620  1
  O  O16  1  0.005462  0.994538  0.805793  1
  O  O17  1  0.841383  0.668349  0.599636  1
  O  O18  1  0.509087  0.036751  0.340465  1
  O  O19  1  0.963249  0.490913  0.340465  1
  O  O20  1  0.152580  0.847420  0.102635  1
  O  O21  1  0.836846  0.163154  0.607299  1
  O  O22  1  0.043945  0.518672  0.845390  1
  O  O23  1  0.481328  0.956055  0.845390  1
  O  O24  1  0.331908  0.668092  0.605168  1
  O  O25  1  0.168990  0.326092  0.098024  1
  O  O26  1  0.485902  0.514098  0.833303  1
  O  O27  1  0.673908  0.831010  0.098024  1
