# generated using pymatgen
data_Mn3NbCr2(PO4)6
_symmetry_space_group_name_H-M   'P 1'
_cell_length_a   8.56174453
_cell_length_b   8.56174453
_cell_length_c   8.56174453
_cell_angle_alpha   61.57287089
_cell_angle_beta   61.57287089
_cell_angle_gamma   61.57287089
_symmetry_Int_Tables_number   1
_chemical_formula_structural   Mn3NbCr2(PO4)6
_chemical_formula_sum   'Mn3 Nb1 Cr2 P6 O24'
_cell_volume   459.44479163
_cell_formula_units_Z   1
loop_
 _symmetry_equiv_pos_site_id
 _symmetry_equiv_pos_as_xyz
  1  'x, y, z'
loop_
 _atom_site_type_symbol
 _atom_site_label
 _atom_site_symmetry_multiplicity
 _atom_site_fract_x
 _atom_site_fract_y
 _atom_site_fract_z
 _atom_site_occupancy
  Mn  Mn0  1  0.850822  0.850822  0.850822  1
  Mn  Mn1  1  0.647183  0.647183  0.647183  1
  Mn  Mn2  1  0.353455  0.353455  0.353455  1
  Nb  Nb3  1  0.146555  0.146555  0.146555  1
  Cr  Cr4  1  0.997244  0.997244  0.997244  1
  Cr  Cr5  1  0.498500  0.498500  0.498500  1
  P  P6  1  0.251964  0.557278  0.945946  1
  P  P7  1  0.745563  0.452005  0.053460  1
  P  P8  1  0.452005  0.053460  0.745563  1
  P  P9  1  0.053460  0.745563  0.452005  1
  P  P10  1  0.945946  0.251964  0.557278  1
  P  P11  1  0.557278  0.945946  0.251964  1
  O  O12  1  0.905358  0.678775  0.481591  1
  O  O13  1  0.678775  0.481591  0.905358  1
  O  O14  1  0.929994  0.095847  0.753223  1
  O  O15  1  0.481591  0.905358  0.678775  1
  O  O16  1  0.012815  0.171623  0.392784  1
  O  O17  1  0.749653  0.396356  0.553449  1
  O  O18  1  0.753223  0.929994  0.095847  1
  O  O19  1  0.553449  0.749653  0.396356  1
  O  O20  1  0.825079  0.597424  0.011316  1
  O  O21  1  0.396356  0.553449  0.749653  1
  O  O22  1  0.905996  0.245048  0.072701  1
  O  O23  1  0.597424  0.011316  0.825079  1
  O  O24  1  0.392784  0.012815  0.171623  1
  O  O25  1  0.095847  0.753223  0.929994  1
  O  O26  1  0.598538  0.432812  0.255801  1
  O  O27  1  0.171623  0.392784  0.012815  1
  O  O28  1  0.432812  0.255801  0.598538  1
  O  O29  1  0.245048  0.072701  0.905996  1
  O  O30  1  0.255801  0.598538  0.432812  1
  O  O31  1  0.011316  0.825079  0.597424  1
  O  O32  1  0.514306  0.097190  0.322348  1
  O  O33  1  0.072701  0.905996  0.245048  1
  O  O34  1  0.322348  0.514306  0.097190  1
  O  O35  1  0.097190  0.322348  0.514306  1
