# generated using pymatgen
data_Li10FeNi9O20
_symmetry_space_group_name_H-M   'P 1'
_cell_length_a   6.48520478
_cell_length_b   7.67389424
_cell_length_c   7.69378276
_cell_angle_alpha   65.43440073
_cell_angle_beta   89.20309488
_cell_angle_gamma   89.61196812
_symmetry_Int_Tables_number   1
_chemical_formula_structural   Li10FeNi9O20
_chemical_formula_sum   'Li10 Fe1 Ni9 O20'
_cell_volume   348.20349018
_cell_formula_units_Z   1
loop_
 _symmetry_equiv_pos_site_id
 _symmetry_equiv_pos_as_xyz
  1  'x, y, z'
loop_
 _atom_site_type_symbol
 _atom_site_label
 _atom_site_symmetry_multiplicity
 _atom_site_fract_x
 _atom_site_fract_y
 _atom_site_fract_z
 _atom_site_occupancy
  Li  Li0  1  0.300898  0.699926  0.699888  1
  Li  Li1  1  0.801841  0.705407  0.203783  1
  Li  Li2  1  0.102473  0.899678  0.902898  1
  Li  Li3  1  0.897527  0.100322  0.097102  1
  Li  Li4  1  0.595817  0.903647  0.401259  1
  Li  Li5  1  0.404183  0.096353  0.598741  1
  Li  Li6  1  0.198159  0.294593  0.796217  1
  Li  Li7  1  0.000000  0.500000  0.000000  1
  Li  Li8  1  0.699102  0.300074  0.300112  1
  Li  Li9  1  0.500000  0.500000  0.500000  1
  Fe  Fe10  1  0.000000  0.000000  0.500000  1
  Ni  Ni11  1  0.697627  0.798654  0.799768  1
  Ni  Ni12  1  0.200333  0.800463  0.298051  1
  Ni  Ni13  1  0.500000  0.000000  0.000000  1
  Ni  Ni14  1  0.302373  0.201346  0.200232  1
  Ni  Ni15  1  0.799667  0.199537  0.701949  1
  Ni  Ni16  1  0.100919  0.403126  0.399018  1
  Ni  Ni17  1  0.600683  0.399068  0.901540  1
  Ni  Ni18  1  0.399317  0.600932  0.098460  1
  Ni  Ni19  1  0.899081  0.596874  0.600982  1
  O  O20  1  0.122926  0.645346  0.148302  1
  O  O21  1  0.987966  0.741420  0.736473  1
  O  O22  1  0.609513  0.626421  0.671249  1
  O  O23  1  0.485844  0.747047  0.233484  1
  O  O24  1  0.910161  0.849813  0.353238  1
  O  O25  1  0.405421  0.832571  0.873563  1
  O  O26  1  0.089839  0.150187  0.646762  1
  O  O27  1  0.295167  0.951824  0.444968  1
  O  O28  1  0.223802  0.047209  0.052511  1
  O  O29  1  0.776198  0.952791  0.947489  1
  O  O30  1  0.514156  0.252953  0.766516  1
  O  O31  1  0.012034  0.258580  0.263527  1
  O  O32  1  0.704833  0.048176  0.555032  1
  O  O33  1  0.594579  0.167429  0.126437  1
  O  O34  1  0.877074  0.354654  0.851698  1
  O  O35  1  0.390487  0.373579  0.328751  1
  O  O36  1  0.326475  0.454250  0.957190  1
  O  O37  1  0.673525  0.545750  0.042810  1
  O  O38  1  0.182565  0.545901  0.536355  1
  O  O39  1  0.817435  0.454099  0.463645  1
