# generated using pymatgen
data_Co2(SO4)3
_symmetry_space_group_name_H-M   'P 1'
_cell_length_a   8.45040399
_cell_length_b   8.53711187
_cell_length_c   11.83307555
_cell_angle_alpha   90.00000000
_cell_angle_beta   90.00000000
_cell_angle_gamma   90.00000000
_symmetry_Int_Tables_number   1
_chemical_formula_structural   Co2(SO4)3
_chemical_formula_sum   'Co8 S12 O48'
_cell_volume   853.66225946
_cell_formula_units_Z   4
loop_
 _symmetry_equiv_pos_site_id
 _symmetry_equiv_pos_as_xyz
  1  'x, y, z'
loop_
 _atom_site_type_symbol
 _atom_site_label
 _atom_site_symmetry_multiplicity
 _atom_site_fract_x
 _atom_site_fract_y
 _atom_site_fract_z
 _atom_site_occupancy
  Co  Co0  1  0.031083  0.749631  0.121864  1
  Co  Co1  1  0.531083  0.250369  0.121864  1
  Co  Co2  1  0.031083  0.249631  0.378136  1
  Co  Co3  1  0.531083  0.750369  0.378136  1
  Co  Co4  1  0.968917  0.750369  0.621864  1
  Co  Co5  1  0.468917  0.249631  0.621864  1
  Co  Co6  1  0.468917  0.749631  0.878136  1
  Co  Co7  1  0.968917  0.250369  0.878136  1
  S  S8  1  0.750000  0.538848  0.000000  1
  S  S9  1  0.250000  0.461152  0.000000  1
  S  S10  1  0.394244  0.897260  0.145476  1
  S  S11  1  0.894244  0.102740  0.145476  1
  S  S12  1  0.894244  0.602740  0.354524  1
  S  S13  1  0.394244  0.397260  0.354524  1
  S  S14  1  0.250000  0.961152  0.500000  1
  S  S15  1  0.750000  0.038848  0.500000  1
  S  S16  1  0.605756  0.602740  0.645476  1
  S  S17  1  0.105756  0.397260  0.645476  1
  S  S18  1  0.105756  0.897260  0.854524  1
  S  S19  1  0.605756  0.102740  0.854524  1
  O  O20  1  0.430593  0.859139  0.027381  1
  O  O21  1  0.930593  0.140861  0.027381  1
  O  O22  1  0.634769  0.441199  0.062566  1
  O  O23  1  0.134769  0.558801  0.062566  1
  O  O24  1  0.830335  0.638499  0.084069  1
  O  O25  1  0.330335  0.361501  0.084069  1
  O  O26  1  0.895757  0.928388  0.160742  1
  O  O27  1  0.395757  0.071612  0.160742  1
  O  O28  1  0.236602  0.840622  0.180102  1
  O  O29  1  0.736602  0.159378  0.180102  1
  O  O30  1  0.018718  0.170995  0.219470  1
  O  O31  1  0.518718  0.829005  0.219470  1
  O  O32  1  0.018718  0.670995  0.280530  1
  O  O33  1  0.518718  0.329005  0.280530  1
  O  O34  1  0.236602  0.340622  0.319898  1
  O  O35  1  0.736602  0.659378  0.319898  1
  O  O36  1  0.395757  0.571612  0.339258  1
  O  O37  1  0.895757  0.428388  0.339258  1
  O  O38  1  0.330335  0.861501  0.415931  1
  O  O39  1  0.830335  0.138499  0.415931  1
  O  O40  1  0.634769  0.941199  0.437434  1
  O  O41  1  0.134769  0.058801  0.437434  1
  O  O42  1  0.430593  0.359139  0.472619  1
  O  O43  1  0.930593  0.640861  0.472619  1
  O  O44  1  0.569407  0.640861  0.527381  1
  O  O45  1  0.069407  0.359139  0.527381  1
  O  O46  1  0.865231  0.941199  0.562566  1
  O  O47  1  0.365231  0.058801  0.562566  1
  O  O48  1  0.169665  0.861501  0.584069  1
  O  O49  1  0.669665  0.138499  0.584069  1
  O  O50  1  0.104243  0.571612  0.660742  1
  O  O51  1  0.604243  0.428388  0.660742  1
  O  O52  1  0.763398  0.659378  0.680102  1
  O  O53  1  0.263398  0.340622  0.680102  1
  O  O54  1  0.481282  0.670995  0.719470  1
  O  O55  1  0.981282  0.329005  0.719470  1
  O  O56  1  0.981282  0.829005  0.780530  1
  O  O57  1  0.481282  0.170995  0.780530  1
  O  O58  1  0.263398  0.840622  0.819898  1
  O  O59  1  0.763398  0.159378  0.819898  1
  O  O60  1  0.604243  0.928388  0.839258  1
  O  O61  1  0.104243  0.071612  0.839258  1
  O  O62  1  0.669665  0.638499  0.915931  1
  O  O63  1  0.169665  0.361501  0.915931  1
  O  O64  1  0.365231  0.558801  0.937434  1
  O  O65  1  0.865231  0.441199  0.937434  1
  O  O66  1  0.069407  0.859139  0.972619  1
  O  O67  1  0.569407  0.140861  0.972619  1
