# generated using pymatgen
data_Li2NbCr3O8
_symmetry_space_group_name_H-M   'P 1'
_cell_length_a   6.03967421
_cell_length_b   6.03967421
_cell_length_c   6.03967421
_cell_angle_alpha   59.90535377
_cell_angle_beta   59.90535377
_cell_angle_gamma   59.90535377
_symmetry_Int_Tables_number   1
_chemical_formula_structural   Li2NbCr3O8
_chemical_formula_sum   'Li2 Nb1 Cr3 O8'
_cell_volume   155.45047230
_cell_formula_units_Z   1
loop_
 _symmetry_equiv_pos_site_id
 _symmetry_equiv_pos_as_xyz
  1  'x, y, z'
loop_
 _atom_site_type_symbol
 _atom_site_label
 _atom_site_symmetry_multiplicity
 _atom_site_fract_x
 _atom_site_fract_y
 _atom_site_fract_z
 _atom_site_occupancy
  Li  Li0  1  0.872688  0.872688  0.872688  1
  Li  Li1  1  0.127312  0.127312  0.127312  1
  Nb  Nb2  1  0.500000  0.500000  0.500000  1
  Cr  Cr3  1  0.500000  0.500000  0.000000  1
  Cr  Cr4  1  0.000000  0.500000  0.500000  1
  Cr  Cr5  1  0.500000  0.000000  0.500000  1
  O  O6  1  0.734796  0.734796  0.734796  1
  O  O7  1  0.736299  0.284497  0.736299  1
  O  O8  1  0.284497  0.736299  0.736299  1
  O  O9  1  0.736299  0.736299  0.284497  1
  O  O10  1  0.263701  0.263701  0.715503  1
  O  O11  1  0.715503  0.263701  0.263701  1
  O  O12  1  0.263701  0.715503  0.263701  1
  O  O13  1  0.265204  0.265204  0.265204  1
