# generated using pymatgen
data_Li11Ti12(NiO8)4
_symmetry_space_group_name_H-M   'P 1'
_cell_length_a   8.42492462
_cell_length_b   8.42492462
_cell_length_c   8.42492462
_cell_angle_alpha   90.09566087
_cell_angle_beta   90.09566087
_cell_angle_gamma   90.09566087
_symmetry_Int_Tables_number   1
_chemical_formula_structural   Li11Ti12(NiO8)4
_chemical_formula_sum   'Li11 Ti12 Ni4 O32'
_cell_volume   597.99321072
_cell_formula_units_Z   1
loop_
 _symmetry_equiv_pos_site_id
 _symmetry_equiv_pos_as_xyz
  1  'x, y, z'
loop_
 _atom_site_type_symbol
 _atom_site_label
 _atom_site_symmetry_multiplicity
 _atom_site_fract_x
 _atom_site_fract_y
 _atom_site_fract_z
 _atom_site_occupancy
  Li  Li0  1  0.373086  0.373086  0.373086  1
  Li  Li1  1  0.748018  0.251982  0.000000  1
  Li  Li2  1  1.000000  0.251585  0.748415  1
  Li  Li3  1  0.500000  0.997991  0.002009  1
  Li  Li4  1  0.251982  0.000000  0.748018  1
  Li  Li5  1  0.748415  0.000000  0.251585  1
  Li  Li6  1  0.997991  0.002009  0.500000  1
  Li  Li7  1  0.251585  0.748415  0.000000  1
  Li  Li8  1  0.000000  0.748018  0.251982  1
  Li  Li9  1  0.626914  0.626914  0.626914  1
  Li  Li10  1  0.002009  0.500000  0.997991  1
  Ti  Ti11  1  0.500000  0.259350  0.740650  1
  Ti  Ti12  1  0.254417  0.257050  0.002488  1
  Ti  Ti13  1  0.002488  0.254417  0.257050  1
  Ti  Ti14  1  0.745583  0.997512  0.742950  1
  Ti  Ti15  1  0.502051  0.000000  0.497949  1
  Ti  Ti16  1  0.257050  0.002488  0.254417  1
  Ti  Ti17  1  0.742950  0.745583  0.997512  1
  Ti  Ti18  1  0.997512  0.742950  0.745583  1
  Ti  Ti19  1  0.259350  0.740650  0.500000  1
  Ti  Ti20  1  0.497949  0.502051  0.000000  1
  Ti  Ti21  1  0.740650  0.500000  0.259350  1
  Ti  Ti22  1  0.000000  0.497949  0.502051  1
  Ni  Ni23  1  0.745490  0.254510  0.500000  1
  Ni  Ni24  1  0.000000  0.000000  0.000000  1
  Ni  Ni25  1  0.500000  0.745490  0.254510  1
  Ni  Ni26  1  0.254510  0.500000  0.745490  1
  O  O27  1  0.263230  0.247776  0.770017  1
  O  O28  1  0.491644  0.258908  0.984312  1
  O  O29  1  0.770017  0.263230  0.247776  1
  O  O30  1  0.989194  0.260664  0.491974  1
  O  O31  1  0.736770  0.229983  0.752224  1
  O  O32  1  0.500763  0.235980  0.514995  1
  O  O33  1  0.238819  0.238819  0.238819  1
  O  O34  1  0.015942  0.249888  0.011183  1
  O  O35  1  0.739336  0.010806  0.508026  1
  O  O36  1  0.508356  0.015688  0.741092  1
  O  O37  1  0.249888  0.011183  0.015942  1
  O  O38  1  0.011183  0.015942  0.249888  1
  O  O39  1  0.750112  0.984058  0.988817  1
  O  O40  1  0.984058  0.988817  0.750112  1
  O  O41  1  0.258908  0.984312  0.491644  1
  O  O42  1  0.491974  0.989194  0.260664  1
  O  O43  1  0.988817  0.750112  0.984058  1
  O  O44  1  0.761181  0.761181  0.761181  1
  O  O45  1  0.485005  0.764020  0.499237  1
  O  O46  1  0.247776  0.770017  0.263230  1
  O  O47  1  0.508026  0.739336  0.010806  1
  O  O48  1  0.752224  0.736770  0.229983  1
  O  O49  1  0.015688  0.741092  0.508356  1
  O  O50  1  0.229983  0.752224  0.736770  1
  O  O51  1  0.514995  0.500763  0.235980  1
  O  O52  1  0.741092  0.508356  0.015688  1
  O  O53  1  0.010806  0.508026  0.739336  1
  O  O54  1  0.235980  0.514995  0.500763  1
  O  O55  1  0.499237  0.485005  0.764020  1
  O  O56  1  0.260664  0.491974  0.989194  1
  O  O57  1  0.984312  0.491644  0.258908  1
  O  O58  1  0.764020  0.499237  0.485005  1
