# generated using pymatgen
data_Gd2AsO5
_symmetry_space_group_name_H-M   'P 1'
_cell_length_a   8.49649327
_cell_length_b   8.49649327
_cell_length_c   5.84241649
_cell_angle_alpha   90.00000000
_cell_angle_beta   90.00000000
_cell_angle_gamma   90.00000000
_symmetry_Int_Tables_number   1
_chemical_formula_structural   Gd2AsO5
_chemical_formula_sum   'Gd8 As4 O20'
_cell_volume   421.76637104
_cell_formula_units_Z   4
loop_
 _symmetry_equiv_pos_site_id
 _symmetry_equiv_pos_as_xyz
  1  'x, y, z'
loop_
 _atom_site_type_symbol
 _atom_site_label
 _atom_site_symmetry_multiplicity
 _atom_site_fract_x
 _atom_site_fract_y
 _atom_site_fract_z
 _atom_site_occupancy
  Gd  Gd0  1  0.358026  0.348617  0.248787  1
  Gd  Gd1  1  0.651383  0.358026  0.751213  1
  Gd  Gd2  1  0.348617  0.641974  0.751213  1
  Gd  Gd3  1  0.641974  0.651383  0.248787  1
  Gd  Gd4  1  0.858026  0.848617  0.751213  1
  Gd  Gd5  1  0.151383  0.858026  0.248787  1
  Gd  Gd6  1  0.848617  0.141974  0.248787  1
  Gd  Gd7  1  0.141974  0.151383  0.751213  1
  As  As8  1  0.000000  0.500000  0.544108  1
  As  As9  1  0.000000  0.500000  0.139700  1
  As  As10  1  0.500000  0.000000  0.455892  1
  As  As11  1  0.500000  0.000000  0.860300  1
  O  O12  1  0.913562  0.305784  0.605777  1
  O  O13  1  0.088683  0.305418  0.099058  1
  O  O14  1  0.805418  0.411317  0.099058  1
  O  O15  1  0.194216  0.413562  0.605777  1
  O  O16  1  0.500000  0.500000  0.500000  1
  O  O17  1  0.500000  0.500000  0.000000  1
  O  O18  1  0.805784  0.586438  0.605777  1
  O  O19  1  0.194582  0.588683  0.099058  1
  O  O20  1  0.911317  0.694582  0.099058  1
  O  O21  1  0.086438  0.694216  0.605777  1
  O  O22  1  0.413562  0.805784  0.394223  1
  O  O23  1  0.588683  0.805418  0.900942  1
  O  O24  1  0.305418  0.911317  0.900942  1
  O  O25  1  0.694216  0.913562  0.394223  1
  O  O26  1  0.000000  0.000000  0.500000  1
  O  O27  1  0.000000  0.000000  0.000000  1
  O  O28  1  0.305784  0.086438  0.394223  1
  O  O29  1  0.694582  0.088683  0.900942  1
  O  O30  1  0.411317  0.194582  0.900942  1
  O  O31  1  0.586438  0.194216  0.394223  1
