# generated using pymatgen
data_Cr2CoNi3(PO4)6
_symmetry_space_group_name_H-M   'P 1'
_cell_length_a   8.34544520
_cell_length_b   8.34544520
_cell_length_c   8.34544520
_cell_angle_alpha   61.95934213
_cell_angle_beta   61.95934213
_cell_angle_gamma   61.95934213
_symmetry_Int_Tables_number   1
_chemical_formula_structural   Cr2CoNi3(PO4)6
_chemical_formula_sum   'Cr2 Co1 Ni3 P6 O24'
_cell_volume   429.00948381
_cell_formula_units_Z   1
loop_
 _symmetry_equiv_pos_site_id
 _symmetry_equiv_pos_as_xyz
  1  'x, y, z'
loop_
 _atom_site_type_symbol
 _atom_site_label
 _atom_site_symmetry_multiplicity
 _atom_site_fract_x
 _atom_site_fract_y
 _atom_site_fract_z
 _atom_site_occupancy
  Cr  Cr0  1  0.999448  0.999448  0.999448  1
  Cr  Cr1  1  0.499725  0.499725  0.499725  1
  Co  Co2  1  0.139715  0.139715  0.139715  1
  Ni  Ni3  1  0.642250  0.642250  0.642250  1
  Ni  Ni4  1  0.858016  0.858016  0.858016  1
  Ni  Ni5  1  0.358183  0.358183  0.358183  1
  P  P6  1  0.955127  0.249785  0.541271  1
  P  P7  1  0.541271  0.955127  0.249785  1
  P  P8  1  0.249785  0.541271  0.955127  1
  P  P9  1  0.751939  0.452903  0.049584  1
  P  P10  1  0.452903  0.049584  0.751939  1
  P  P11  1  0.049584  0.751939  0.452903  1
  O  O12  1  0.501578  0.102176  0.333114  1
  O  O13  1  0.333114  0.501578  0.102176  1
  O  O14  1  0.102176  0.333114  0.501578  1
  O  O15  1  0.945489  0.095590  0.746260  1
  O  O16  1  0.997660  0.175326  0.384138  1
  O  O17  1  0.747917  0.397302  0.560360  1
  O  O18  1  0.746260  0.945489  0.095590  1
  O  O19  1  0.560360  0.747917  0.397302  1
  O  O20  1  0.828560  0.603928  0.009168  1
  O  O21  1  0.397302  0.560360  0.747917  1
  O  O22  1  0.912650  0.245249  0.062795  1
  O  O23  1  0.603928  0.009168  0.828560  1
  O  O24  1  0.384138  0.997660  0.175326  1
  O  O25  1  0.095590  0.746260  0.945489  1
  O  O26  1  0.602287  0.432138  0.255492  1
  O  O27  1  0.175326  0.384138  0.997660  1
  O  O28  1  0.432138  0.255492  0.602287  1
  O  O29  1  0.245249  0.062795  0.912650  1
  O  O30  1  0.255492  0.602287  0.432138  1
  O  O31  1  0.009168  0.828560  0.603928  1
  O  O32  1  0.062795  0.912650  0.245249  1
  O  O33  1  0.898679  0.677983  0.486203  1
  O  O34  1  0.677983  0.486203  0.898679  1
  O  O35  1  0.486203  0.898679  0.677983  1
