# generated using pymatgen
data_LiCr(PO4)2
_symmetry_space_group_name_H-M   'P 1'
_cell_length_a   5.18268594
_cell_length_b   10.52659710
_cell_length_c   11.08547393
_cell_angle_alpha   90.00000000
_cell_angle_beta   90.00000000
_cell_angle_gamma   90.00000000
_symmetry_Int_Tables_number   1
_chemical_formula_structural   LiCr(PO4)2
_chemical_formula_sum   'Li4 Cr4 P8 O32'
_cell_volume   604.77963437
_cell_formula_units_Z   4
loop_
 _symmetry_equiv_pos_site_id
 _symmetry_equiv_pos_as_xyz
  1  'x, y, z'
loop_
 _atom_site_type_symbol
 _atom_site_label
 _atom_site_symmetry_multiplicity
 _atom_site_fract_x
 _atom_site_fract_y
 _atom_site_fract_z
 _atom_site_occupancy
  Li  Li0  1  0.780641  0.734088  0.109767  1
  Li  Li1  1  0.219359  0.234088  0.390233  1
  Li  Li2  1  0.719359  0.265912  0.609767  1
  Li  Li3  1  0.280641  0.765912  0.890233  1
  Cr  Cr4  1  0.233708  0.402605  0.142938  1
  Cr  Cr5  1  0.766292  0.902605  0.357062  1
  Cr  Cr6  1  0.266292  0.597395  0.642938  1
  Cr  Cr7  1  0.733708  0.097395  0.857062  1
  P  P8  1  0.239543  0.092264  0.038419  1
  P  P9  1  0.257170  0.859506  0.175290  1
  P  P10  1  0.742830  0.359506  0.324710  1
  P  P11  1  0.760457  0.592264  0.461581  1
  P  P12  1  0.260457  0.907736  0.538419  1
  P  P13  1  0.242830  0.140494  0.675290  1
  P  P14  1  0.757170  0.640494  0.824710  1
  P  P15  1  0.739543  0.407736  0.961581  1
  O  O16  1  0.988073  0.052690  0.977608  1
  O  O17  1  0.975772  0.458180  0.029722  1
  O  O18  1  0.204684  0.796837  0.055756  1
  O  O19  1  0.254970  0.230738  0.070878  1
  O  O20  1  0.245163  0.014001  0.164159  1
  O  O21  1  0.245901  0.535565  0.212636  1
  O  O22  1  0.963580  0.324079  0.237596  1
  O  O23  1  0.524730  0.826380  0.227067  1
  O  O24  1  0.475270  0.326380  0.272933  1
  O  O25  1  0.036420  0.824079  0.262404  1
  O  O26  1  0.754099  0.035565  0.287364  1
  O  O27  1  0.754837  0.514001  0.335841  1
  O  O28  1  0.745030  0.730738  0.429122  1
  O  O29  1  0.795316  0.296837  0.444244  1
  O  O30  1  0.024228  0.958180  0.470278  1
  O  O31  1  0.011927  0.552690  0.522392  1
  O  O32  1  0.511927  0.947310  0.477608  1
  O  O33  1  0.524228  0.541820  0.529722  1
  O  O34  1  0.295316  0.203163  0.555756  1
  O  O35  1  0.245030  0.769262  0.570878  1
  O  O36  1  0.254837  0.985999  0.664159  1
  O  O37  1  0.254099  0.464435  0.712636  1
  O  O38  1  0.536420  0.675921  0.737596  1
  O  O39  1  0.975270  0.173620  0.727067  1
  O  O40  1  0.024730  0.673620  0.772933  1
  O  O41  1  0.463580  0.175921  0.762404  1
  O  O42  1  0.745901  0.964435  0.787364  1
  O  O43  1  0.745163  0.485999  0.835841  1
  O  O44  1  0.754970  0.269262  0.929122  1
  O  O45  1  0.704684  0.703163  0.944244  1
  O  O46  1  0.475772  0.041820  0.970278  1
  O  O47  1  0.488073  0.447310  0.022392  1
