# generated using pymatgen
data_WO2F
_symmetry_space_group_name_H-M   'P 1'
_cell_length_a   5.55958727
_cell_length_b   5.55958727
_cell_length_c   5.75175732
_cell_angle_alpha   59.09337578
_cell_angle_beta   120.90662422
_cell_angle_gamma   119.14986400
_symmetry_Int_Tables_number   1
_chemical_formula_structural   WO2F
_chemical_formula_sum   'W2 O4 F2'
_cell_volume   124.71346754
_cell_formula_units_Z   2
loop_
 _symmetry_equiv_pos_site_id
 _symmetry_equiv_pos_as_xyz
  1  'x, y, z'
loop_
 _atom_site_type_symbol
 _atom_site_label
 _atom_site_symmetry_multiplicity
 _atom_site_fract_x
 _atom_site_fract_y
 _atom_site_fract_z
 _atom_site_occupancy
  W  W0  1  0.303102  0.249167  0.842483  1
  W  W1  1  0.750833  0.696898  0.342483  1
  O  O2  1  0.004003  0.436911  0.597022  1
  O  O3  1  0.538147  0.489911  0.601500  1
  O  O4  1  0.563089  0.995997  0.097022  1
  O  O5  1  0.510089  0.461853  0.101500  1
  F  F6  1  0.057823  0.969516  0.595348  1
  F  F7  1  0.030484  0.942177  0.095348  1
