# generated using pymatgen
data_LiMn(SO4)2
_symmetry_space_group_name_H-M   'P 1'
_cell_length_a   8.31279100
_cell_length_b   8.36795380
_cell_length_c   8.95800163
_cell_angle_alpha   90.12488953
_cell_angle_beta   117.46079626
_cell_angle_gamma   118.36935156
_symmetry_Int_Tables_number   1
_chemical_formula_structural   LiMn(SO4)2
_chemical_formula_sum   'Li3 Mn3 S6 O24'
_cell_volume   466.56333789
_cell_formula_units_Z   3
loop_
 _symmetry_equiv_pos_site_id
 _symmetry_equiv_pos_as_xyz
  1  'x, y, z'
loop_
 _atom_site_type_symbol
 _atom_site_label
 _atom_site_symmetry_multiplicity
 _atom_site_fract_x
 _atom_site_fract_y
 _atom_site_fract_z
 _atom_site_occupancy
  Li  Li0  1  0.699175  0.826636  0.535267  1
  Li  Li1  1  0.408025  0.816028  0.628150  1
  Li  Li2  1  0.040820  0.215897  0.635378  1
  Mn  Mn3  1  0.301643  0.658712  0.949991  1
  Mn  Mn4  1  0.713138  0.357492  0.066641  1
  Mn  Mn5  1  0.301758  0.153038  0.448289  1
  S  S6  1  0.218356  0.959078  0.756312  1
  S  S7  1  0.490598  0.533559  0.749466  1
  S  S8  1  0.770216  0.242561  0.745358  1
  S  S9  1  0.206837  0.752394  0.254159  1
  S  S10  1  0.503827  0.465613  0.242294  1
  S  S11  1  0.810827  0.055810  0.257434  1
  O  O12  1  0.621250  0.904082  0.097816  1
  O  O13  1  0.187037  0.695320  0.084422  1
  O  O14  1  0.041877  0.988823  0.701809  1
  O  O15  1  0.370937  0.482846  0.064988  1
  O  O16  1  0.269102  0.962537  0.614122  1
  O  O17  1  0.149189  0.763709  0.780284  1
  O  O18  1  0.380093  0.627543  0.770688  1
  O  O19  1  0.627432  0.651934  0.688455  1
  O  O20  1  0.975552  0.354782  0.751479  1
  O  O21  1  0.277060  0.956102  0.284909  1
  O  O22  1  0.363663  0.725698  0.400371  1
  O  O23  1  0.670422  0.647766  0.371010  1
  O  O24  1  0.306598  0.342088  0.617077  1
  O  O25  1  0.614271  0.283175  0.604714  1
  O  O26  1  0.691034  0.040745  0.707954  1
  O  O27  1  0.991861  0.634047  0.228688  1
  O  O28  1  0.349883  0.334697  0.288580  1
  O  O29  1  0.602431  0.364788  0.214313  1
  O  O30  1  0.873143  0.246772  0.228325  1
  O  O31  1  0.782029  0.048582  0.407738  1
  O  O32  1  0.609743  0.509493  0.920495  1
  O  O33  1  0.991359  0.027765  0.293666  1
  O  O34  1  0.813756  0.317041  0.919857  1
  O  O35  1  0.411450  0.099442  0.920693  1
