# generated using pymatgen
data_LiMnF3
_symmetry_space_group_name_H-M   'P 1'
_cell_length_a   5.89076147
_cell_length_b   9.33973070
_cell_length_c   10.06838688
_cell_angle_alpha   90.00000000
_cell_angle_beta   90.00000000
_cell_angle_gamma   90.00000000
_symmetry_Int_Tables_number   1
_chemical_formula_structural   LiMnF3
_chemical_formula_sum   'Li8 Mn8 F24'
_cell_volume   553.94377544
_cell_formula_units_Z   8
loop_
 _symmetry_equiv_pos_site_id
 _symmetry_equiv_pos_as_xyz
  1  'x, y, z'
loop_
 _atom_site_type_symbol
 _atom_site_label
 _atom_site_symmetry_multiplicity
 _atom_site_fract_x
 _atom_site_fract_y
 _atom_site_fract_z
 _atom_site_occupancy
  Li  Li0  1  0.451154  0.579682  0.203347  1
  Li  Li1  1  0.951154  0.420318  0.203347  1
  Li  Li2  1  0.951154  0.920318  0.296653  1
  Li  Li3  1  0.451154  0.079682  0.296653  1
  Li  Li4  1  0.548846  0.920318  0.703347  1
  Li  Li5  1  0.048846  0.079682  0.703347  1
  Li  Li6  1  0.048846  0.579682  0.796653  1
  Li  Li7  1  0.548846  0.420318  0.796653  1
  Mn  Mn8  1  0.750000  0.717746  0.000000  1
  Mn  Mn9  1  0.250000  0.906280  0.000000  1
  Mn  Mn10  1  0.750000  0.093720  0.000000  1
  Mn  Mn11  1  0.250000  0.282254  0.000000  1
  Mn  Mn12  1  0.250000  0.406280  0.500000  1
  Mn  Mn13  1  0.750000  0.217746  0.500000  1
  Mn  Mn14  1  0.250000  0.782254  0.500000  1
  Mn  Mn15  1  0.750000  0.593720  0.500000  1
  F  F16  1  0.914345  0.912643  0.103778  1
  F  F17  1  0.414345  0.087357  0.103778  1
  F  F18  1  0.430607  0.749313  0.099107  1
  F  F19  1  0.930607  0.250687  0.099107  1
  F  F20  1  0.765259  0.569825  0.153835  1
  F  F21  1  0.265259  0.430175  0.153835  1
  F  F22  1  0.765259  0.069825  0.346165  1
  F  F23  1  0.265259  0.930175  0.346165  1
  F  F24  1  0.930607  0.750687  0.400893  1
  F  F25  1  0.430607  0.249313  0.400893  1
  F  F26  1  0.914345  0.412643  0.396222  1
  F  F27  1  0.414345  0.587357  0.396222  1
  F  F28  1  0.085655  0.587357  0.603778  1
  F  F29  1  0.585655  0.412643  0.603778  1
  F  F30  1  0.569393  0.750687  0.599107  1
  F  F31  1  0.069393  0.249313  0.599107  1
  F  F32  1  0.734741  0.069825  0.653835  1
  F  F33  1  0.234741  0.930175  0.653835  1
  F  F34  1  0.734741  0.569825  0.846165  1
  F  F35  1  0.234741  0.430175  0.846165  1
  F  F36  1  0.069393  0.749313  0.900893  1
  F  F37  1  0.569393  0.250687  0.900893  1
  F  F38  1  0.585655  0.912643  0.896222  1
  F  F39  1  0.085655  0.087357  0.896222  1
