# generated using pymatgen
data_Mn6OF11
_symmetry_space_group_name_H-M   'P 1'
_cell_length_a   5.91623957
_cell_length_b   5.91623957
_cell_length_c   7.62695608
_cell_angle_alpha   74.05698512
_cell_angle_beta   105.94301488
_cell_angle_gamma   107.25332497
_symmetry_Int_Tables_number   1
_chemical_formula_structural   Mn6OF11
_chemical_formula_sum   'Mn6 O1 F11'
_cell_volume   239.65132950
_cell_formula_units_Z   1
loop_
 _symmetry_equiv_pos_site_id
 _symmetry_equiv_pos_as_xyz
  1  'x, y, z'
loop_
 _atom_site_type_symbol
 _atom_site_label
 _atom_site_symmetry_multiplicity
 _atom_site_fract_x
 _atom_site_fract_y
 _atom_site_fract_z
 _atom_site_occupancy
  Mn  Mn0  1  0.332910  0.667090  0.833065  1
  Mn  Mn1  1  0.663382  0.336618  0.647607  1
  Mn  Mn2  1  0.347308  0.652692  0.328564  1
  Mn  Mn3  1  0.659860  0.340140  0.178978  1
  Mn  Mn4  1  0.002520  0.997480  0.498886  1
  Mn  Mn5  1  0.996195  0.003805  0.005337  1
  O  O6  1  0.568564  0.431436  0.359920  1
  F  F7  1  0.969946  0.637352  0.669645  1
  F  F8  1  0.638686  0.978456  0.329045  1
  F  F9  1  0.111197  0.888803  0.300139  1
  F  F10  1  0.433486  0.566514  0.627378  1
  F  F11  1  0.758769  0.241231  0.972034  1
  F  F12  1  0.899606  0.100394  0.707777  1
  F  F13  1  0.229133  0.770867  0.034147  1
  F  F14  1  0.021544  0.361314  0.329045  1
  F  F15  1  0.362648  0.030054  0.669645  1
  F  F16  1  0.695858  0.691610  0.004394  1
  F  F17  1  0.308390  0.304142  0.004394  1
