# generated using pymatgen
data_SrLu2O4
_symmetry_space_group_name_H-M   'P 1'
_cell_length_a   5.71840934
_cell_length_b   5.71840934
_cell_length_c   11.02485635
_cell_angle_alpha   90.00000000
_cell_angle_beta   90.00000000
_cell_angle_gamma   146.32662649
_symmetry_Int_Tables_number   1
_chemical_formula_structural   SrLu2O4
_chemical_formula_sum   'Sr2 Lu4 O8'
_cell_volume   199.89036979
_cell_formula_units_Z   2
loop_
 _symmetry_equiv_pos_site_id
 _symmetry_equiv_pos_as_xyz
  1  'x, y, z'
loop_
 _atom_site_type_symbol
 _atom_site_label
 _atom_site_symmetry_multiplicity
 _atom_site_fract_x
 _atom_site_fract_y
 _atom_site_fract_z
 _atom_site_occupancy
  Sr  Sr0  1  0.389298  0.610702  0.250000  1
  Sr  Sr1  1  0.610702  0.389298  0.750000  1
  Lu  Lu2  1  0.866034  0.133966  0.928256  1
  Lu  Lu3  1  0.866034  0.133966  0.571744  1
  Lu  Lu4  1  0.133966  0.866034  0.071744  1
  Lu  Lu5  1  0.133966  0.866034  0.428256  1
  O  O6  1  0.500000  0.500000  1.000000  1
  O  O7  1  0.500000  0.500000  0.500000  1
  O  O8  1  0.946139  0.053861  0.750000  1
  O  O9  1  0.763846  0.236154  0.106844  1
  O  O10  1  0.763846  0.236154  0.393156  1
  O  O11  1  0.236154  0.763846  0.606844  1
  O  O12  1  0.236154  0.763846  0.893156  1
  O  O13  1  0.053861  0.946139  0.250000  1
