# generated using pymatgen
data_CeZr7O16
_symmetry_space_group_name_H-M   'P 1'
_cell_length_a   7.43216987
_cell_length_b   7.43216987
_cell_length_c   6.46268407
_cell_angle_alpha   72.02095260
_cell_angle_beta   107.97904740
_cell_angle_gamma   120.82661682
_symmetry_Int_Tables_number   1
_chemical_formula_structural   CeZr7O16
_chemical_formula_sum   'Ce1 Zr7 O16'
_cell_volume   286.58589371
_cell_formula_units_Z   1
loop_
 _symmetry_equiv_pos_site_id
 _symmetry_equiv_pos_as_xyz
  1  'x, y, z'
loop_
 _atom_site_type_symbol
 _atom_site_label
 _atom_site_symmetry_multiplicity
 _atom_site_fract_x
 _atom_site_fract_y
 _atom_site_fract_z
 _atom_site_occupancy
  Ce  Ce0  1  0.000025  0.999975  0.000962  1
  Zr  Zr1  1  0.252180  0.250201  0.501853  1
  Zr  Zr2  1  0.252189  0.747811  0.501848  1
  Zr  Zr3  1  0.498375  0.501625  0.002134  1
  Zr  Zr4  1  0.749799  0.747820  0.501853  1
  Zr  Zr5  1  0.502162  0.004279  0.998282  1
  Zr  Zr6  1  0.749175  0.250825  0.495999  1
  Zr  Zr7  1  0.995721  0.497838  0.998282  1
  O  O8  1  0.076971  0.923029  0.363855  1
  O  O9  1  0.201857  0.798143  0.098472  1
  O  O10  1  0.422942  0.073759  0.650658  1
  O  O11  1  0.178674  0.329777  0.151025  1
  O  O12  1  0.316764  0.210544  0.894199  1
  O  O13  1  0.049093  0.451025  0.401930  1
  O  O14  1  0.705503  0.294497  0.111403  1
  O  O15  1  0.575489  0.424511  0.349564  1
  O  O16  1  0.447025  0.552975  0.588548  1
  O  O17  1  0.326660  0.673340  0.847238  1
  O  O18  1  0.926241  0.577058  0.650658  1
  O  O19  1  0.548975  0.950907  0.401930  1
  O  O20  1  0.670223  0.821326  0.151025  1
  O  O21  1  0.789456  0.683236  0.894199  1
  O  O22  1  0.948013  0.051987  0.596757  1
  O  O23  1  0.816500  0.183500  0.847327  1
