# generated using pymatgen
data_Ho2(SeO3)3
_symmetry_space_group_name_H-M   'P 1'
_cell_length_a   7.08100322
_cell_length_b   8.11214740
_cell_length_c   9.06207519
_cell_angle_alpha   71.56958590
_cell_angle_beta   70.14575915
_cell_angle_gamma   65.93790202
_symmetry_Int_Tables_number   1
_chemical_formula_structural   Ho2(SeO3)3
_chemical_formula_sum   'Ho4 Se6 O18'
_cell_volume   437.38726996
_cell_formula_units_Z   2
loop_
 _symmetry_equiv_pos_site_id
 _symmetry_equiv_pos_as_xyz
  1  'x, y, z'
loop_
 _atom_site_type_symbol
 _atom_site_label
 _atom_site_symmetry_multiplicity
 _atom_site_fract_x
 _atom_site_fract_y
 _atom_site_fract_z
 _atom_site_occupancy
  Ho  Ho0  1  0.258276  0.264938  0.201946  1
  Ho  Ho1  1  0.333729  0.728531  0.589685  1
  Ho  Ho2  1  0.666271  0.271469  0.410315  1
  Ho  Ho3  1  0.741724  0.735062  0.798054  1
  Se  Se4  1  0.112611  0.242786  0.586325  1
  Se  Se5  1  0.427808  0.775468  0.197549  1
  Se  Se6  1  0.145805  0.752774  0.965155  1
  Se  Se7  1  0.854195  0.247226  0.034845  1
  Se  Se8  1  0.572192  0.224532  0.802451  1
  Se  Se9  1  0.887389  0.757214  0.413675  1
  O  O10  1  0.157373  0.014034  0.655536  1
  O  O11  1  0.166482  0.567725  0.120524  1
  O  O12  1  0.034850  0.703691  0.554139  1
  O  O13  1  0.343796  0.253805  0.436470  1
  O  O14  1  0.066297  0.695327  0.831496  1
  O  O15  1  0.592745  0.286708  0.149842  1
  O  O16  1  0.348153  0.208095  0.948057  1
  O  O17  1  0.358709  0.943832  0.306205  1
  O  O18  1  0.516753  0.593060  0.351186  1
  O  O19  1  0.483247  0.406940  0.648814  1
  O  O20  1  0.641291  0.056168  0.693795  1
  O  O21  1  0.651847  0.791905  0.051943  1
  O  O22  1  0.407255  0.713292  0.850158  1
  O  O23  1  0.933703  0.304673  0.168504  1
  O  O24  1  0.656204  0.746195  0.563530  1
  O  O25  1  0.965150  0.296309  0.445861  1
  O  O26  1  0.833518  0.432275  0.879476  1
  O  O27  1  0.842627  0.985966  0.344464  1
