# generated using pymatgen
data_Li3MnAlO4
_symmetry_space_group_name_H-M   'P 1'
_cell_length_a   10.21668392
_cell_length_b   10.21668392
_cell_length_c   10.21668392
_cell_angle_alpha   115.59462648
_cell_angle_beta   115.59462648
_cell_angle_gamma   97.81631392
_symmetry_Int_Tables_number   1
_chemical_formula_structural   Li3MnAlO4
_chemical_formula_sum   'Li24 Mn8 Al8 O32'
_cell_volume   796.25059704
_cell_formula_units_Z   8
loop_
 _symmetry_equiv_pos_site_id
 _symmetry_equiv_pos_as_xyz
  1  'x, y, z'
loop_
 _atom_site_type_symbol
 _atom_site_label
 _atom_site_symmetry_multiplicity
 _atom_site_fract_x
 _atom_site_fract_y
 _atom_site_fract_z
 _atom_site_occupancy
  Li  Li0  1  0.927160  0.103500  0.151427  1
  Li  Li1  1  0.822840  0.146500  0.348573  1
  Li  Li2  1  0.525733  0.177160  0.323660  1
  Li  Li3  1  0.896500  0.047927  0.823660  1
  Li  Li4  1  0.441523  0.297717  0.137783  1
  Li  Li5  1  0.713841  0.571954  0.147188  1
  Li  Li6  1  0.224267  0.072840  0.176340  1
  Li  Li7  1  0.853500  0.202073  0.676340  1
  Li  Li8  1  0.702283  0.840065  0.143805  1
  Li  Li9  1  0.428046  0.575234  0.141887  1
  Li  Li10  1  0.797927  0.474267  0.651427  1
  Li  Li11  1  0.952073  0.775733  0.848573  1
  Li  Li12  1  0.321954  0.674766  0.358113  1
  Li  Li13  1  0.433348  0.286159  0.858113  1
  Li  Li14  1  0.047717  0.409935  0.356195  1
  Li  Li15  1  0.696260  0.558477  0.856195  1
  Li  Li16  1  0.036159  0.678046  0.352812  1
  Li  Li17  1  0.424766  0.566652  0.852812  1
  Li  Li18  1  0.590065  0.946260  0.637783  1
  Li  Li19  1  0.308477  0.952283  0.362217  1
  Li  Li20  1  0.159935  0.303740  0.862217  1
  Li  Li21  1  0.325234  0.683348  0.647188  1
  Li  Li22  1  0.053740  0.691523  0.643805  1
  Li  Li23  1  0.316652  0.963841  0.641887  1
  Mn  Mn24  1  0.451780  0.925994  0.000277  1
  Mn  Mn25  1  0.548497  0.548220  0.474214  1
  Mn  Mn26  1  0.675994  0.175717  0.974214  1
  Mn  Mn27  1  0.824283  0.798497  0.500277  1
  Mn  Mn28  1  0.298220  0.324006  0.499723  1
  Mn  Mn29  1  0.074006  0.074283  0.525786  1
  Mn  Mn30  1  0.201503  0.701780  0.025786  1
  Mn  Mn31  1  0.925717  0.451503  0.999723  1
  Al  Al32  1  0.751246  0.411660  0.300083  1
  Al  Al33  1  0.548838  0.248754  0.660414  1
  Al  Al34  1  0.161660  0.361576  0.160414  1
  Al  Al35  1  0.588340  0.888424  0.339586  1
  Al  Al36  1  0.638424  0.798838  0.800083  1
  Al  Al37  1  0.111576  0.451162  0.699917  1
  Al  Al38  1  0.998754  0.838340  0.199917  1
  Al  Al39  1  0.201162  0.001246  0.839586  1
  O  O40  1  0.833123  0.268758  0.244402  1
  O  O41  1  0.338721  0.083123  0.064365  1
  O  O42  1  0.601346  0.358006  0.086790  1
  O  O43  1  0.863021  0.642180  0.094834  1
  O  O44  1  0.886979  0.607820  0.405166  1
  O  O45  1  0.651186  0.392345  0.400190  1
  O  O46  1  0.411279  0.166877  0.435635  1
  O  O47  1  0.357820  0.452654  0.220841  1
  O  O48  1  0.518187  0.113021  0.720841  1
  O  O49  1  0.916877  0.981242  0.255598  1
  O  O50  1  0.142345  0.242155  0.241159  1
  O  O51  1  0.749004  0.348814  0.741159  1
  O  O52  1  0.641994  0.728783  0.243340  1
  O  O53  1  0.108006  0.521217  0.256660  1
  O  O54  1  0.485443  0.398654  0.756660  1
  O  O55  1  0.607655  0.007845  0.258841  1
  O  O56  1  0.725644  0.661279  0.744402  1
  O  O57  1  0.231813  0.136979  0.779159  1
  O  O58  1  0.392180  0.797346  0.279159  1
  O  O59  1  0.731242  0.975644  0.564365  1
  O  O60  1  0.478783  0.735443  0.586790  1
  O  O61  1  0.098814  0.857655  0.099810  1
  O  O62  1  0.992155  0.250996  0.599810  1
  O  O63  1  0.202654  0.481813  0.594834  1
  O  O64  1  0.547346  0.768187  0.905166  1
  O  O65  1  0.757845  0.999004  0.900190  1
  O  O66  1  0.271217  0.514557  0.913210  1
  O  O67  1  0.148654  0.891994  0.413210  1
  O  O68  1  0.018758  0.274356  0.935635  1
  O  O69  1  0.024356  0.588721  0.755598  1
  O  O70  1  0.264557  0.851346  0.743340  1
  O  O71  1  0.000996  0.901186  0.758841  1
