# generated using pymatgen
data_LiP3W2O13
_symmetry_space_group_name_H-M   'P 1'
_cell_length_a   6.46688166
_cell_length_b   7.49744881
_cell_length_c   11.28038367
_cell_angle_alpha   74.91623214
_cell_angle_beta   85.49783854
_cell_angle_gamma   80.48157616
_symmetry_Int_Tables_number   1
_chemical_formula_structural   LiP3W2O13
_chemical_formula_sum   'Li2 P6 W4 O26'
_cell_volume   520.45520740
_cell_formula_units_Z   2
loop_
 _symmetry_equiv_pos_site_id
 _symmetry_equiv_pos_as_xyz
  1  'x, y, z'
loop_
 _atom_site_type_symbol
 _atom_site_label
 _atom_site_symmetry_multiplicity
 _atom_site_fract_x
 _atom_site_fract_y
 _atom_site_fract_z
 _atom_site_occupancy
  Li  Li0  1  0.265246  0.565929  0.795371  1
  Li  Li1  1  0.734754  0.434071  0.204629  1
  P  P2  1  0.117888  0.474436  0.307842  1
  P  P3  1  0.259205  0.801426  0.334021  1
  P  P4  1  0.261586  0.925835  0.892338  1
  P  P5  1  0.738414  0.074165  0.107662  1
  P  P6  1  0.740795  0.198574  0.665979  1
  P  P7  1  0.882112  0.525564  0.692158  1
  W  W8  1  0.225372  0.211148  0.086104  1
  W  W9  1  0.240983  0.195300  0.595999  1
  W  W10  1  0.759017  0.804700  0.404001  1
  W  W11  1  0.774628  0.788852  0.913896  1
  O  O12  1  0.132257  0.386130  0.199470  1
  O  O13  1  0.113492  0.461801  0.661456  1
  O  O14  1  0.075899  0.783065  0.429368  1
  O  O15  1  0.222917  0.101917  0.785736  1
  O  O16  1  0.246130  0.351979  0.416264  1
  O  O17  1  0.091031  0.798730  0.901337  1
  O  O18  1  0.237297  0.654515  0.253621  1
  O  O19  1  0.249924  0.378696  0.945006  1
  O  O20  1  0.270716  0.985361  0.012059  1
  O  O21  1  0.243503  0.995185  0.249038  1
  O  O22  1  0.533506  0.205826  0.127671  1
  O  O23  1  0.308281  0.968308  0.580205  1
  O  O24  1  0.530010  0.268744  0.605178  1
  O  O25  1  0.469990  0.731256  0.394822  1
  O  O26  1  0.691719  0.031692  0.419795  1
  O  O27  1  0.466494  0.794174  0.872329  1
  O  O28  1  0.756497  0.004815  0.750962  1
  O  O29  1  0.729284  0.014639  0.987941  1
  O  O30  1  0.750076  0.621304  0.054994  1
  O  O31  1  0.762703  0.345485  0.746379  1
  O  O32  1  0.908969  0.201270  0.098663  1
  O  O33  1  0.753870  0.648021  0.583736  1
  O  O34  1  0.777083  0.898083  0.214264  1
  O  O35  1  0.924101  0.216935  0.570632  1
  O  O36  1  0.886508  0.538199  0.338544  1
  O  O37  1  0.867743  0.613870  0.800530  1
