# generated using pymatgen
data_LiCu4(PO4)3
_symmetry_space_group_name_H-M   'P 1'
_cell_length_a   6.20955244
_cell_length_b   9.64043566
_cell_length_c   15.96557293
_cell_angle_alpha   90.00000000
_cell_angle_beta   90.00000000
_cell_angle_gamma   90.00000000
_symmetry_Int_Tables_number   1
_chemical_formula_structural   LiCu4(PO4)3
_chemical_formula_sum   'Li4 Cu16 P12 O48'
_cell_volume   955.74375192
_cell_formula_units_Z   4
loop_
 _symmetry_equiv_pos_site_id
 _symmetry_equiv_pos_as_xyz
  1  'x, y, z'
loop_
 _atom_site_type_symbol
 _atom_site_label
 _atom_site_symmetry_multiplicity
 _atom_site_fract_x
 _atom_site_fract_y
 _atom_site_fract_z
 _atom_site_occupancy
  Li  Li0  1  0.000000  0.722799  0.530312  1
  Li  Li1  1  0.000000  0.277201  0.469688  1
  Li  Li2  1  0.500000  0.222799  0.969688  1
  Li  Li3  1  0.500000  0.777201  0.030312  1
  Cu  Cu4  1  0.000000  0.460028  0.904457  1
  Cu  Cu5  1  0.000000  0.027644  0.848868  1
  Cu  Cu6  1  0.000000  0.972356  0.151132  1
  Cu  Cu7  1  0.000000  0.539972  0.095543  1
  Cu  Cu8  1  0.750933  0.250919  0.696102  1
  Cu  Cu9  1  0.750933  0.749081  0.303898  1
  Cu  Cu10  1  0.749067  0.750919  0.803898  1
  Cu  Cu11  1  0.749067  0.249081  0.196102  1
  Cu  Cu12  1  0.500000  0.039972  0.404457  1
  Cu  Cu13  1  0.500000  0.960028  0.595543  1
  Cu  Cu14  1  0.500000  0.472356  0.348868  1
  Cu  Cu15  1  0.500000  0.527644  0.651132  1
  Cu  Cu16  1  0.250933  0.249081  0.196102  1
  Cu  Cu17  1  0.250933  0.750919  0.803898  1
  Cu  Cu18  1  0.249067  0.250919  0.696102  1
  Cu  Cu19  1  0.249067  0.749081  0.303898  1
  P  P20  1  0.000000  0.790676  0.971273  1
  P  P21  1  0.000000  0.954429  0.660099  1
  P  P22  1  0.000000  0.540179  0.715705  1
  P  P23  1  0.000000  0.459821  0.284295  1
  P  P24  1  0.000000  0.045571  0.339901  1
  P  P25  1  0.000000  0.209324  0.028727  1
  P  P26  1  0.500000  0.040179  0.784295  1
  P  P27  1  0.500000  0.709324  0.471273  1
  P  P28  1  0.500000  0.454429  0.839901  1
  P  P29  1  0.500000  0.290676  0.528727  1
  P  P30  1  0.500000  0.959821  0.215705  1
  P  P31  1  0.500000  0.545571  0.160099  1
  O  O32  1  0.000000  0.630818  0.986332  1
  O  O33  1  0.000000  0.891214  0.754468  1
  O  O34  1  0.000000  0.605688  0.809218  1
  O  O35  1  0.000000  0.137934  0.944973  1
  O  O36  1  0.000000  0.379333  0.725446  1
  O  O37  1  0.000000  0.884693  0.329421  1
  O  O38  1  0.000000  0.115307  0.670579  1
  O  O39  1  0.000000  0.620667  0.274554  1
  O  O40  1  0.000000  0.862066  0.055027  1
  O  O41  1  0.000000  0.394312  0.190782  1
  O  O42  1  0.000000  0.108786  0.245532  1
  O  O43  1  0.000000  0.369182  0.013668  1
  O  O44  1  0.792601  0.829717  0.921391  1
  O  O45  1  0.792601  0.170283  0.078609  1
  O  O46  1  0.801465  0.901008  0.613589  1
  O  O47  1  0.801465  0.098992  0.386411  1
  O  O48  1  0.797370  0.598699  0.674553  1
  O  O49  1  0.797370  0.401301  0.325447  1
  O  O50  1  0.702630  0.098699  0.825447  1
  O  O51  1  0.702630  0.901301  0.174553  1
  O  O52  1  0.698535  0.598992  0.113589  1
  O  O53  1  0.698535  0.401008  0.886411  1
  O  O54  1  0.707399  0.670283  0.421391  1
  O  O55  1  0.707399  0.329717  0.578609  1
  O  O56  1  0.500000  0.615307  0.829421  1
  O  O57  1  0.500000  0.637934  0.555027  1
  O  O58  1  0.500000  0.869182  0.486332  1
  O  O59  1  0.500000  0.879333  0.774554  1
  O  O60  1  0.500000  0.362066  0.444973  1
  O  O61  1  0.500000  0.130818  0.513668  1
  O  O62  1  0.500000  0.894312  0.309218  1
  O  O63  1  0.500000  0.391214  0.745532  1
  O  O64  1  0.500000  0.105688  0.690782  1
  O  O65  1  0.500000  0.120667  0.225446  1
  O  O66  1  0.500000  0.384693  0.170579  1
  O  O67  1  0.500000  0.608786  0.254468  1
  O  O68  1  0.292601  0.329717  0.578609  1
  O  O69  1  0.292601  0.670283  0.421391  1
  O  O70  1  0.301465  0.401008  0.886411  1
  O  O71  1  0.301465  0.598992  0.113589  1
  O  O72  1  0.297370  0.098699  0.825447  1
  O  O73  1  0.297370  0.901301  0.174553  1
  O  O74  1  0.202630  0.598699  0.674553  1
  O  O75  1  0.202630  0.401301  0.325447  1
  O  O76  1  0.198535  0.901008  0.613589  1
  O  O77  1  0.198535  0.098992  0.386411  1
  O  O78  1  0.207399  0.829717  0.921391  1
  O  O79  1  0.207399  0.170283  0.078609  1
