# generated using pymatgen
data_Ba2Ta2O7
_symmetry_space_group_name_H-M   'P 1'
_cell_length_a   14.13814338
_cell_length_b   14.13814338
_cell_length_c   5.92934063
_cell_angle_alpha   90.00000000
_cell_angle_beta   90.00000000
_cell_angle_gamma   163.39237906
_symmetry_Int_Tables_number   1
_chemical_formula_structural   Ba2Ta2O7
_chemical_formula_sum   'Ba4 Ta4 O14'
_cell_volume   338.74855026
_cell_formula_units_Z   2
loop_
 _symmetry_equiv_pos_site_id
 _symmetry_equiv_pos_as_xyz
  1  'x, y, z'
loop_
 _atom_site_type_symbol
 _atom_site_label
 _atom_site_symmetry_multiplicity
 _atom_site_fract_x
 _atom_site_fract_y
 _atom_site_fract_z
 _atom_site_occupancy
  Ba  Ba0  1  0.291950  0.708050  0.250000  1
  Ba  Ba1  1  0.447183  0.552817  0.750000  1
  Ba  Ba2  1  0.708050  0.291950  0.750000  1
  Ba  Ba3  1  0.552817  0.447183  0.250000  1
  Ta  Ta4  1  0.159080  0.840920  0.250000  1
  Ta  Ta5  1  0.055461  0.944539  0.750000  1
  Ta  Ta6  1  0.840920  0.159080  0.750000  1
  Ta  Ta7  1  0.944539  0.055461  0.250000  1
  O  O8  1  0.000000  0.000000  0.000000  1
  O  O9  1  0.099907  0.900093  0.998562  1
  O  O10  1  0.000000  0.000000  0.500000  1
  O  O11  1  0.099907  0.900093  0.501438  1
  O  O12  1  0.204990  0.795010  0.022142  1
  O  O13  1  0.204990  0.795010  0.477858  1
  O  O14  1  0.450610  0.549390  0.250000  1
  O  O15  1  0.349135  0.650865  0.750000  1
  O  O16  1  0.549390  0.450610  0.750000  1
  O  O17  1  0.795010  0.204990  0.522142  1
  O  O18  1  0.795010  0.204990  0.977858  1
  O  O19  1  0.900093  0.099907  0.001438  1
  O  O20  1  0.650865  0.349135  0.250000  1
  O  O21  1  0.900093  0.099907  0.498562  1
