# generated using pymatgen
data_LiNi2OF3
_symmetry_space_group_name_H-M   'P 1'
_cell_length_a   7.98563443
_cell_length_b   7.98563443
_cell_length_c   7.98563443
_cell_angle_alpha   136.83871233
_cell_angle_beta   115.40383768
_cell_angle_gamma   80.88441668
_symmetry_Int_Tables_number   1
_chemical_formula_structural   LiNi2OF3
_chemical_formula_sum   'Li4 Ni8 O4 F12'
_cell_volume   304.67462397
_cell_formula_units_Z   4
loop_
 _symmetry_equiv_pos_site_id
 _symmetry_equiv_pos_as_xyz
  1  'x, y, z'
loop_
 _atom_site_type_symbol
 _atom_site_label
 _atom_site_symmetry_multiplicity
 _atom_site_fract_x
 _atom_site_fract_y
 _atom_site_fract_z
 _atom_site_occupancy
  Li  Li0  1  0.781305  0.135233  0.646071  1
  Li  Li1  1  0.510838  0.864767  0.646071  1
  Li  Li2  1  0.992312  0.629200  0.363112  1
  Li  Li3  1  0.733912  0.370800  0.363112  1
  Ni  Ni4  1  0.238417  0.251225  0.987192  1
  Ni  Ni5  1  0.367140  0.860377  0.991374  1
  Ni  Ni6  1  0.130997  0.139623  0.506764  1
  Ni  Ni7  1  0.983831  0.000000  0.983831  1
  Ni  Ni8  1  0.735967  0.748775  0.987192  1
  Ni  Ni9  1  0.519289  0.500000  0.019289  1
  Ni  Ni10  1  0.367140  0.375767  0.506764  1
  Ni  Ni11  1  0.130997  0.624233  0.991374  1
  O  O12  1  0.033849  0.270938  0.762911  1
  O  O13  1  0.491973  0.729062  0.762911  1
  O  O14  1  0.284461  0.500000  0.784461  1
  O  O15  1  0.218961  0.000000  0.218961  1
  F  F16  1  0.379042  0.133586  0.762762  1
  F  F17  1  0.755520  0.000000  0.755520  1
  F  F18  1  0.629175  0.866414  0.245455  1
  F  F19  1  0.872013  0.112977  0.237257  1
  F  F20  1  0.379042  0.616280  0.245455  1
  F  F21  1  0.994647  0.762084  0.232563  1
  F  F22  1  0.124280  0.887023  0.759036  1
  F  F23  1  0.872013  0.634756  0.759036  1
  F  F24  1  0.629175  0.383720  0.762762  1
  F  F25  1  0.748951  0.500000  0.248951  1
  F  F26  1  0.470479  0.237916  0.232563  1
  F  F27  1  0.124280  0.365244  0.237257  1
