# generated using pymatgen
data_Li6MnV3(PO4)6
_symmetry_space_group_name_H-M   'P 1'
_cell_length_a   8.56008778
_cell_length_b   8.57894826
_cell_length_c   8.62783513
_cell_angle_alpha   62.14862127
_cell_angle_beta   62.26031655
_cell_angle_gamma   62.42670773
_symmetry_Int_Tables_number   1
_chemical_formula_structural   Li6MnV3(PO4)6
_chemical_formula_sum   'Li6 Mn1 V3 P6 O24'
_cell_volume   470.80369874
_cell_formula_units_Z   1
loop_
 _symmetry_equiv_pos_site_id
 _symmetry_equiv_pos_as_xyz
  1  'x, y, z'
loop_
 _atom_site_type_symbol
 _atom_site_label
 _atom_site_symmetry_multiplicity
 _atom_site_fract_x
 _atom_site_fract_y
 _atom_site_fract_z
 _atom_site_occupancy
  Li  Li0  1  0.981372  0.009354  0.997725  1
  Li  Li1  1  0.239168  0.652741  0.860488  1
  Li  Li2  1  0.528357  0.500434  0.493687  1
  Li  Li3  1  0.776514  0.341018  0.152412  1
  Li  Li4  1  0.336214  0.157979  0.773867  1
  Li  Li5  1  0.157089  0.776369  0.338524  1
  Mn  Mn6  1  0.150634  0.152042  0.151932  1
  V  V7  1  0.858620  0.862208  0.856900  1
  V  V8  1  0.642952  0.647728  0.638283  1
  V  V9  1  0.354719  0.354359  0.352718  1
  P  P10  1  0.944226  0.553850  0.249124  1
  P  P11  1  0.556226  0.249859  0.941290  1
  P  P12  1  0.250580  0.946001  0.551358  1
  P  P13  1  0.745471  0.042845  0.459438  1
  P  P14  1  0.457081  0.746271  0.036731  1
  P  P15  1  0.042815  0.464486  0.746367  1
  O  O16  1  0.876607  0.524022  0.682774  1
  O  O17  1  0.669196  0.885928  0.510634  1
  O  O18  1  0.952096  0.735900  0.082437  1
  O  O19  1  0.483204  0.683645  0.881173  1
  O  O20  1  0.756222  0.586889  0.407708  1
  O  O21  1  0.951802  0.400759  0.198004  1
  O  O22  1  0.745600  0.093005  0.925456  1
  O  O23  1  0.574614  0.418361  0.755806  1
  O  O24  1  0.407775  0.752499  0.580378  1
  O  O25  1  0.804497  0.006951  0.617396  1
  O  O26  1  0.903403  0.047956  0.272210  1
  O  O27  1  0.626075  0.792476  0.997421  1
  O  O28  1  0.399814  0.198252  0.954475  1
  O  O29  1  0.100041  0.926200  0.745816  1
  O  O30  1  0.192638  0.960393  0.401220  1
  O  O31  1  0.591577  0.237604  0.431824  1
  O  O32  1  0.433187  0.588643  0.229636  1
  O  O33  1  0.270725  0.906626  0.053700  1
  O  O34  1  0.027171  0.619245  0.802792  1
  O  O35  1  0.233176  0.434804  0.589778  1
  O  O36  1  0.512624  0.303156  0.107448  1
  O  O37  1  0.045694  0.276881  0.905321  1
  O  O38  1  0.308699  0.110280  0.508176  1
  O  O39  1  0.111524  0.500982  0.308575  1
