# generated using pymatgen
data_Mn5Co(PO4)6
_symmetry_space_group_name_H-M   'P 1'
_cell_length_a   8.56447186
_cell_length_b   8.56447186
_cell_length_c   8.56447186
_cell_angle_alpha   59.60446839
_cell_angle_beta   59.60446839
_cell_angle_gamma   59.60446839
_symmetry_Int_Tables_number   1
_chemical_formula_structural   Mn5Co(PO4)6
_chemical_formula_sum   'Mn5 Co1 P6 O24'
_cell_volume   440.21508313
_cell_formula_units_Z   1
loop_
 _symmetry_equiv_pos_site_id
 _symmetry_equiv_pos_as_xyz
  1  'x, y, z'
loop_
 _atom_site_type_symbol
 _atom_site_label
 _atom_site_symmetry_multiplicity
 _atom_site_fract_x
 _atom_site_fract_y
 _atom_site_fract_z
 _atom_site_occupancy
  Mn  Mn0  1  0.001432  0.001432  0.001432  1
  Mn  Mn1  1  0.643678  0.643678  0.643678  1
  Mn  Mn2  1  0.499850  0.499850  0.499850  1
  Mn  Mn3  1  0.857188  0.857188  0.857188  1
  Mn  Mn4  1  0.356404  0.356404  0.356404  1
  Co  Co5  1  0.141562  0.141562  0.141562  1
  P  P6  1  0.248793  0.534915  0.962713  1
  P  P7  1  0.962713  0.248793  0.534915  1
  P  P8  1  0.534915  0.962713  0.248793  1
  P  P9  1  0.459243  0.039757  0.752813  1
  P  P10  1  0.039757  0.752813  0.459243  1
  P  P11  1  0.752813  0.459243  0.039757  1
  O  O12  1  0.121636  0.300644  0.511593  1
  O  O13  1  0.511593  0.121636  0.300644  1
  O  O14  1  0.300644  0.511593  0.121636  1
  O  O15  1  0.083306  0.734729  0.944203  1
  O  O16  1  0.198645  0.374624  0.990151  1
  O  O17  1  0.418418  0.553788  0.764880  1
  O  O18  1  0.944203  0.083306  0.734729  1
  O  O19  1  0.764880  0.418418  0.553788  1
  O  O20  1  0.622619  0.011770  0.800555  1
  O  O21  1  0.553788  0.764880  0.418418  1
  O  O22  1  0.263328  0.056391  0.920733  1
  O  O23  1  0.011770  0.800555  0.622619  1
  O  O24  1  0.990151  0.198645  0.374624  1
  O  O25  1  0.734729  0.944203  0.083306  1
  O  O26  1  0.443528  0.235927  0.583395  1
  O  O27  1  0.374624  0.990151  0.198645  1
  O  O28  1  0.235927  0.583395  0.443528  1
  O  O29  1  0.056391  0.920733  0.263328  1
  O  O30  1  0.583395  0.443528  0.235927  1
  O  O31  1  0.800555  0.622619  0.011770  1
  O  O32  1  0.920733  0.263328  0.056391  1
  O  O33  1  0.699554  0.488419  0.878818  1
  O  O34  1  0.488419  0.878818  0.699554  1
  O  O35  1  0.878818  0.699554  0.488419  1
