# generated using pymatgen
data_Li2CoSi3O8
_symmetry_space_group_name_H-M   'P 1'
_cell_length_a   6.28488931
_cell_length_b   8.54915513
_cell_length_c   6.58009122
_cell_angle_alpha   90.00000000
_cell_angle_beta   104.90156628
_cell_angle_gamma   90.00000000
_symmetry_Int_Tables_number   1
_chemical_formula_structural   Li2CoSi3O8
_chemical_formula_sum   'Li4 Co2 Si6 O16'
_cell_volume   341.66127521
_cell_formula_units_Z   2
loop_
 _symmetry_equiv_pos_site_id
 _symmetry_equiv_pos_as_xyz
  1  'x, y, z'
loop_
 _atom_site_type_symbol
 _atom_site_label
 _atom_site_symmetry_multiplicity
 _atom_site_fract_x
 _atom_site_fract_y
 _atom_site_fract_z
 _atom_site_occupancy
  Li  Li0  1  0.848398  0.675443  0.236766  1
  Li  Li1  1  0.588801  0.161594  0.492115  1
  Li  Li2  1  0.411199  0.661594  0.507885  1
  Li  Li3  1  0.151602  0.175443  0.763234  1
  Co  Co4  1  0.042870  0.000998  0.401604  1
  Co  Co5  1  0.957130  0.500998  0.598396  1
  Si  Si6  1  0.417693  0.495154  0.010663  1
  Si  Si7  1  0.245631  0.809952  0.108277  1
  Si  Si8  1  0.159185  0.332572  0.270013  1
  Si  Si9  1  0.840815  0.832572  0.729987  1
  Si  Si10  1  0.754369  0.309952  0.891723  1
  Si  Si11  1  0.582307  0.995154  0.989337  1
  O  O12  1  0.991322  0.259214  0.049812  1
  O  O13  1  0.328727  0.969682  0.011176  1
  O  O14  1  0.432254  0.672610  0.113786  1
  O  O15  1  0.752312  0.976657  0.212656  1
  O  O16  1  0.387787  0.373492  0.196745  1
  O  O17  1  0.225963  0.828061  0.346865  1
  O  O18  1  0.062448  0.494168  0.339244  1
  O  O19  1  0.222940  0.195253  0.447598  1
  O  O20  1  0.777060  0.695253  0.552402  1
  O  O21  1  0.937552  0.994168  0.660756  1
  O  O22  1  0.774037  0.328061  0.653135  1
  O  O23  1  0.612213  0.873492  0.803255  1
  O  O24  1  0.247688  0.476657  0.787344  1
  O  O25  1  0.567746  0.172610  0.886214  1
  O  O26  1  0.671273  0.469682  0.988824  1
  O  O27  1  0.008678  0.759214  0.950188  1
