# generated using pymatgen
data_SrPHO4
_symmetry_space_group_name_H-M   'P 1'
_cell_length_a   8.19401214
_cell_length_b   9.42839399
_cell_length_c   18.27578035
_cell_angle_alpha   90.00000000
_cell_angle_beta   90.00000000
_cell_angle_gamma   90.00000000
_symmetry_Int_Tables_number   1
_chemical_formula_structural   SrPHO4
_chemical_formula_sum   'Sr16 P16 H16 O64'
_cell_volume   1411.92053675
_cell_formula_units_Z   16
loop_
 _symmetry_equiv_pos_site_id
 _symmetry_equiv_pos_as_xyz
  1  'x, y, z'
loop_
 _atom_site_type_symbol
 _atom_site_label
 _atom_site_symmetry_multiplicity
 _atom_site_fract_x
 _atom_site_fract_y
 _atom_site_fract_z
 _atom_site_occupancy
  Sr  Sr0  1  0.621540  0.321059  0.874863  1
  Sr  Sr1  1  0.121540  0.178941  0.125137  1
  Sr  Sr2  1  0.378460  0.821059  0.625137  1
  Sr  Sr3  1  0.878460  0.678941  0.374863  1
  Sr  Sr4  1  0.378460  0.678941  0.125137  1
  Sr  Sr5  1  0.878460  0.821059  0.874863  1
  Sr  Sr6  1  0.621540  0.178941  0.374863  1
  Sr  Sr7  1  0.121540  0.321059  0.625137  1
  Sr  Sr8  1  0.369425  0.682490  0.882567  1
  Sr  Sr9  1  0.869425  0.817510  0.117433  1
  Sr  Sr10  1  0.630575  0.182490  0.617433  1
  Sr  Sr11  1  0.130575  0.317510  0.382567  1
  Sr  Sr12  1  0.630575  0.317510  0.117433  1
  Sr  Sr13  1  0.130575  0.182490  0.882567  1
  Sr  Sr14  1  0.369425  0.817510  0.382567  1
  Sr  Sr15  1  0.869425  0.682490  0.617433  1
  P  P16  1  0.751685  0.079398  0.995841  1
  P  P17  1  0.251685  0.420602  0.004159  1
  P  P18  1  0.248315  0.579398  0.504159  1
  P  P19  1  0.748315  0.920602  0.495841  1
  P  P20  1  0.248315  0.920602  0.004159  1
  P  P21  1  0.748315  0.579398  0.995841  1
  P  P22  1  0.751685  0.420602  0.495841  1
  P  P23  1  0.251685  0.079398  0.504159  1
  P  P24  1  0.017841  0.478606  0.794206  1
  P  P25  1  0.517841  0.021394  0.205794  1
  P  P26  1  0.982159  0.978606  0.705794  1
  P  P27  1  0.482159  0.521394  0.294206  1
  P  P28  1  0.982159  0.521394  0.205794  1
  P  P29  1  0.482159  0.978606  0.794206  1
  P  P30  1  0.017841  0.021394  0.294206  1
  P  P31  1  0.517841  0.478606  0.705794  1
  H  H32  1  0.585702  0.886915  0.996425  1
  H  H33  1  0.085702  0.613085  0.003575  1
  H  H34  1  0.414298  0.386915  0.503575  1
  H  H35  1  0.914298  0.113085  0.496425  1
  H  H36  1  0.414298  0.113085  0.003575  1
  H  H37  1  0.914298  0.386915  0.996425  1
  H  H38  1  0.585702  0.613085  0.496425  1
  H  H39  1  0.085702  0.886915  0.503575  1
  H  H40  1  0.285860  0.423882  0.781193  1
  H  H41  1  0.785860  0.076118  0.218807  1
  H  H42  1  0.714140  0.923882  0.718807  1
  H  H43  1  0.214140  0.576118  0.281193  1
  H  H44  1  0.714140  0.576118  0.218807  1
  H  H45  1  0.214140  0.923882  0.781193  1
  H  H46  1  0.285860  0.076118  0.281193  1
  H  H47  1  0.785860  0.423882  0.718807  1
  O  O48  1  0.590202  0.164177  0.996512  1
  O  O49  1  0.090202  0.335823  0.003488  1
  O  O50  1  0.409798  0.664177  0.503488  1
  O  O51  1  0.909798  0.835823  0.496512  1
  O  O52  1  0.409798  0.835823  0.003488  1
  O  O53  1  0.909798  0.664177  0.996512  1
  O  O54  1  0.590202  0.335823  0.496512  1
  O  O55  1  0.090202  0.164177  0.503488  1
  O  O56  1  0.846488  0.103990  0.924563  1
  O  O57  1  0.346488  0.396010  0.075437  1
  O  O58  1  0.153512  0.603990  0.575437  1
  O  O59  1  0.653512  0.896010  0.424563  1
  O  O60  1  0.153512  0.896010  0.075437  1
  O  O61  1  0.653512  0.603990  0.924563  1
  O  O62  1  0.846488  0.396010  0.424563  1
  O  O63  1  0.346488  0.103990  0.575437  1
  O  O64  1  0.849218  0.105819  0.066400  1
  O  O65  1  0.349218  0.394181  0.933600  1
  O  O66  1  0.150782  0.605819  0.433600  1
  O  O67  1  0.650782  0.894181  0.566400  1
  O  O68  1  0.150782  0.894181  0.933600  1
  O  O69  1  0.650782  0.605819  0.066400  1
  O  O70  1  0.849218  0.394181  0.566400  1
  O  O71  1  0.349218  0.105819  0.433600  1
  O  O72  1  0.708646  0.911944  0.997441  1
  O  O73  1  0.208646  0.588056  0.002559  1
  O  O74  1  0.291354  0.411944  0.502559  1
  O  O75  1  0.791354  0.088056  0.497441  1
  O  O76  1  0.291354  0.088056  0.002559  1
  O  O77  1  0.791354  0.411944  0.997441  1
  O  O78  1  0.708646  0.588056  0.497441  1
  O  O79  1  0.208646  0.911944  0.502559  1
  O  O80  1  0.076474  0.618837  0.827509  1
  O  O81  1  0.576474  0.881163  0.172491  1
  O  O82  1  0.923526  0.118837  0.672491  1
  O  O83  1  0.423526  0.381163  0.327509  1
  O  O84  1  0.923526  0.381163  0.172491  1
  O  O85  1  0.423526  0.118837  0.827509  1
  O  O86  1  0.076474  0.881163  0.327509  1
  O  O87  1  0.576474  0.618837  0.672491  1
  O  O88  1  0.171922  0.374153  0.778932  1
  O  O89  1  0.671922  0.125847  0.221068  1
  O  O90  1  0.828078  0.874153  0.721068  1
  O  O91  1  0.328078  0.625847  0.278932  1
  O  O92  1  0.828078  0.625847  0.221068  1
  O  O93  1  0.328078  0.874153  0.778932  1
  O  O94  1  0.171922  0.125847  0.278932  1
  O  O95  1  0.671922  0.374153  0.721068  1
  O  O96  1  0.941591  0.499326  0.716634  1
  O  O97  1  0.441591  0.000674  0.283366  1
  O  O98  1  0.058409  0.999326  0.783366  1
  O  O99  1  0.558409  0.500674  0.216634  1
  O  O100  1  0.058409  0.500674  0.283366  1
  O  O101  1  0.558409  0.999326  0.716634  1
  O  O102  1  0.941591  0.000674  0.216634  1
  O  O103  1  0.441591  0.499326  0.783366  1
  O  O104  1  0.909131  0.387746  0.843014  1
  O  O105  1  0.409131  0.112254  0.156986  1
  O  O106  1  0.090869  0.887746  0.656986  1
  O  O107  1  0.590869  0.612254  0.343014  1
  O  O108  1  0.090869  0.612254  0.156986  1
  O  O109  1  0.590869  0.887746  0.843014  1
  O  O110  1  0.909131  0.112254  0.343014  1
  O  O111  1  0.409131  0.387746  0.656986  1
