# generated using pymatgen
data_YbHfO3
_symmetry_space_group_name_H-M   'P 1'
_cell_length_a   5.53038890
_cell_length_b   5.72589548
_cell_length_c   7.96073237
_cell_angle_alpha   90.00000000
_cell_angle_beta   90.00000000
_cell_angle_gamma   90.00000000
_symmetry_Int_Tables_number   1
_chemical_formula_structural   YbHfO3
_chemical_formula_sum   'Yb4 Hf4 O12'
_cell_volume   252.08796483
_cell_formula_units_Z   4
loop_
 _symmetry_equiv_pos_site_id
 _symmetry_equiv_pos_as_xyz
  1  'x, y, z'
loop_
 _atom_site_type_symbol
 _atom_site_label
 _atom_site_symmetry_multiplicity
 _atom_site_fract_x
 _atom_site_fract_y
 _atom_site_fract_z
 _atom_site_occupancy
  Yb  Yb0  1  0.987280  0.052840  0.250000  1
  Yb  Yb1  1  0.487280  0.447160  0.750000  1
  Yb  Yb2  1  0.512720  0.552840  0.250000  1
  Yb  Yb3  1  0.012720  0.947160  0.750000  1
  Hf  Hf4  1  0.500000  0.000000  0.000000  1
  Hf  Hf5  1  0.500000  0.000000  0.500000  1
  Hf  Hf6  1  0.000000  0.500000  0.000000  1
  Hf  Hf7  1  0.000000  0.500000  0.500000  1
  O  O8  1  0.606937  0.041051  0.750000  1
  O  O9  1  0.193397  0.196120  0.555432  1
  O  O10  1  0.193397  0.196120  0.944568  1
  O  O11  1  0.693397  0.303880  0.055432  1
  O  O12  1  0.693397  0.303880  0.444568  1
  O  O13  1  0.106937  0.458949  0.250000  1
  O  O14  1  0.893063  0.541051  0.750000  1
  O  O15  1  0.306603  0.696120  0.555432  1
  O  O16  1  0.306603  0.696120  0.944568  1
  O  O17  1  0.806603  0.803880  0.055432  1
  O  O18  1  0.806603  0.803880  0.444568  1
  O  O19  1  0.393063  0.958949  0.250000  1
