# generated using pymatgen
data_TmTiO3
_symmetry_space_group_name_H-M   'P 1'
_cell_length_a   5.28648488
_cell_length_b   5.67375964
_cell_length_c   7.65019918
_cell_angle_alpha   90.00000000
_cell_angle_beta   90.00000000
_cell_angle_gamma   90.00000000
_symmetry_Int_Tables_number   1
_chemical_formula_structural   TmTiO3
_chemical_formula_sum   'Tm4 Ti4 O12'
_cell_volume   229.46194514
_cell_formula_units_Z   4
loop_
 _symmetry_equiv_pos_site_id
 _symmetry_equiv_pos_as_xyz
  1  'x, y, z'
loop_
 _atom_site_type_symbol
 _atom_site_label
 _atom_site_symmetry_multiplicity
 _atom_site_fract_x
 _atom_site_fract_y
 _atom_site_fract_z
 _atom_site_occupancy
  Tm  Tm0  1  0.476051  0.925852  0.750000  1
  Tm  Tm1  1  0.023949  0.425852  0.750000  1
  Tm  Tm2  1  0.976051  0.574148  0.250000  1
  Tm  Tm3  1  0.523949  0.074148  0.250000  1
  Ti  Ti4  1  0.500000  0.500000  0.000000  1
  Ti  Ti5  1  0.000000  0.000000  0.000000  1
  Ti  Ti6  1  0.000000  0.000000  0.500000  1
  Ti  Ti7  1  0.500000  0.500000  0.500000  1
  O  O8  1  0.368689  0.447330  0.250000  1
  O  O9  1  0.312505  0.195772  0.936327  1
  O  O10  1  0.312505  0.195772  0.563673  1
  O  O11  1  0.187495  0.695772  0.936327  1
  O  O12  1  0.187495  0.695772  0.563673  1
  O  O13  1  0.131311  0.947330  0.250000  1
  O  O14  1  0.868689  0.052670  0.750000  1
  O  O15  1  0.812505  0.304228  0.436327  1
  O  O16  1  0.812505  0.304228  0.063673  1
  O  O17  1  0.687495  0.804228  0.436327  1
  O  O18  1  0.687495  0.804228  0.063673  1
  O  O19  1  0.631311  0.552670  0.750000  1
