# generated using pymatgen
data_Li5Co3(NiO5)2
_symmetry_space_group_name_H-M   'P 1'
_cell_length_a   4.89464035
_cell_length_b   5.01438213
_cell_length_c   7.55013629
_cell_angle_alpha   106.51936093
_cell_angle_beta   102.65287562
_cell_angle_gamma   101.60641576
_symmetry_Int_Tables_number   1
_chemical_formula_structural   Li5Co3(NiO5)2
_chemical_formula_sum   'Li5 Co3 Ni2 O10'
_cell_volume   166.32661815
_cell_formula_units_Z   1
loop_
 _symmetry_equiv_pos_site_id
 _symmetry_equiv_pos_as_xyz
  1  'x, y, z'
loop_
 _atom_site_type_symbol
 _atom_site_label
 _atom_site_symmetry_multiplicity
 _atom_site_fract_x
 _atom_site_fract_y
 _atom_site_fract_z
 _atom_site_occupancy
  Li  Li0  1  0.794655  0.507588  0.414533  1
  Li  Li1  1  0.612540  0.507583  0.776572  1
  Li  Li2  1  0.000000  0.000000  0.500000  1
  Li  Li3  1  0.387460  0.492417  0.223428  1
  Li  Li4  1  0.205345  0.492412  0.585467  1
  Co  Co5  1  0.000000  0.500000  0.000000  1
  Co  Co6  1  0.800122  0.997499  0.900048  1
  Co  Co7  1  0.199878  0.002501  0.099952  1
  Ni  Ni8  1  0.407352  0.002156  0.693267  1
  Ni  Ni9  1  0.592648  0.997844  0.306733  1
  O  O10  1  0.168053  0.249749  0.871662  1
  O  O11  1  0.382685  0.778819  0.949682  1
  O  O12  1  0.589981  0.763278  0.542264  1
  O  O13  1  0.000367  0.230206  0.229267  1
  O  O14  1  0.778840  0.230037  0.667689  1
  O  O15  1  0.221160  0.769963  0.332311  1
  O  O16  1  0.999633  0.769794  0.770733  1
  O  O17  1  0.410019  0.236722  0.457736  1
  O  O18  1  0.617315  0.221181  0.050318  1
  O  O19  1  0.831947  0.750251  0.128338  1
