# generated using pymatgen
data_LiSiBiO4
_symmetry_space_group_name_H-M   'P 1'
_cell_length_a   5.77458703
_cell_length_b   7.09848764
_cell_length_c   9.05877140
_cell_angle_alpha   90.00000000
_cell_angle_beta   90.00000000
_cell_angle_gamma   90.00000000
_symmetry_Int_Tables_number   1
_chemical_formula_structural   LiSiBiO4
_chemical_formula_sum   'Li4 Si4 Bi4 O16'
_cell_volume   371.32660067
_cell_formula_units_Z   4
loop_
 _symmetry_equiv_pos_site_id
 _symmetry_equiv_pos_as_xyz
  1  'x, y, z'
loop_
 _atom_site_type_symbol
 _atom_site_label
 _atom_site_symmetry_multiplicity
 _atom_site_fract_x
 _atom_site_fract_y
 _atom_site_fract_z
 _atom_site_occupancy
  Li  Li0  1  0.000000  0.000000  0.000000  1
  Li  Li1  1  0.000000  0.500000  0.000000  1
  Li  Li2  1  0.500000  0.500000  0.500000  1
  Li  Li3  1  0.500000  0.000000  0.500000  1
  Si  Si4  1  0.915573  0.750000  0.677622  1
  Si  Si5  1  0.584427  0.750000  0.177622  1
  Si  Si6  1  0.415573  0.250000  0.822378  1
  Si  Si7  1  0.084427  0.250000  0.322378  1
  Bi  Bi8  1  0.867191  0.250000  0.655965  1
  Bi  Bi9  1  0.632809  0.250000  0.155965  1
  Bi  Bi10  1  0.367191  0.750000  0.844035  1
  Bi  Bi11  1  0.132809  0.750000  0.344035  1
  O  O12  1  0.011874  0.250000  0.144059  1
  O  O13  1  0.677838  0.250000  0.904856  1
  O  O14  1  0.734524  0.935960  0.133614  1
  O  O15  1  0.734524  0.564040  0.133614  1
  O  O16  1  0.765476  0.935960  0.633614  1
  O  O17  1  0.765476  0.564040  0.633614  1
  O  O18  1  0.822162  0.250000  0.404856  1
  O  O19  1  0.488126  0.250000  0.644059  1
  O  O20  1  0.511874  0.750000  0.355941  1
  O  O21  1  0.177838  0.750000  0.595144  1
  O  O22  1  0.265476  0.435960  0.866386  1
  O  O23  1  0.265476  0.064040  0.866386  1
  O  O24  1  0.234524  0.064040  0.366386  1
  O  O25  1  0.234524  0.435960  0.366386  1
  O  O26  1  0.988126  0.750000  0.855941  1
  O  O27  1  0.322162  0.750000  0.095144  1
