# generated using pymatgen
data_Sr2LiNb3O10
_symmetry_space_group_name_H-M   'P 1'
_cell_length_a   3.99381831
_cell_length_b   3.99381831
_cell_length_c   13.95815877
_cell_angle_alpha   81.75953862
_cell_angle_beta   98.24046138
_cell_angle_gamma   90.10888144
_symmetry_Int_Tables_number   1
_chemical_formula_structural   Sr2LiNb3O10
_chemical_formula_sum   'Sr2 Li1 Nb3 O10'
_cell_volume   218.02760729
_cell_formula_units_Z   1
loop_
 _symmetry_equiv_pos_site_id
 _symmetry_equiv_pos_as_xyz
  1  'x, y, z'
loop_
 _atom_site_type_symbol
 _atom_site_label
 _atom_site_symmetry_multiplicity
 _atom_site_fract_x
 _atom_site_fract_y
 _atom_site_fract_z
 _atom_site_occupancy
  Sr  Sr0  1  0.419285  0.586351  0.332926  1
  Sr  Sr1  1  0.586351  0.419285  0.667074  1
  Li  Li2  1  0.749960  0.749960  0.000000  1
  Nb  Nb3  1  0.994130  0.994130  0.500000  1
  Nb  Nb4  1  0.161970  0.838828  0.823177  1
  Nb  Nb5  1  0.838828  0.161970  0.176823  1
  O  O6  1  0.070641  0.925018  0.645678  1
  O  O7  1  0.145487  0.354009  0.791710  1
  O  O8  1  0.227404  0.772642  0.954768  1
  O  O9  1  0.354009  0.145487  0.208290  1
  O  O10  1  0.772642  0.227404  0.045232  1
  O  O11  1  0.925018  0.070641  0.354322  1
  O  O12  1  0.955822  0.483821  0.499749  1
  O  O13  1  0.647955  0.851562  0.796169  1
  O  O14  1  0.483821  0.955822  0.500251  1
  O  O15  1  0.851562  0.647955  0.203831  1
