# generated using pymatgen
data_LiV(PO3)4
_symmetry_space_group_name_H-M   'P 1'
_cell_length_a   7.50825342
_cell_length_b   8.58601702
_cell_length_c   15.59486349
_cell_angle_alpha   90.00000000
_cell_angle_beta   112.79758383
_cell_angle_gamma   90.00000000
_symmetry_Int_Tables_number   1
_chemical_formula_structural   LiV(PO3)4
_chemical_formula_sum   'Li4 V4 P16 O48'
_cell_volume   926.80079869
_cell_formula_units_Z   4
loop_
 _symmetry_equiv_pos_site_id
 _symmetry_equiv_pos_as_xyz
  1  'x, y, z'
loop_
 _atom_site_type_symbol
 _atom_site_label
 _atom_site_symmetry_multiplicity
 _atom_site_fract_x
 _atom_site_fract_y
 _atom_site_fract_z
 _atom_site_occupancy
  Li  Li0  1  0.864697  0.585367  0.925628  1
  Li  Li1  1  0.135303  0.085367  0.574372  1
  Li  Li2  1  0.864697  0.914633  0.425628  1
  Li  Li3  1  0.135303  0.414633  0.074372  1
  V  V4  1  0.311938  0.658845  0.352015  1
  V  V5  1  0.311938  0.841155  0.852015  1
  V  V6  1  0.688062  0.158845  0.147985  1
  V  V7  1  0.688062  0.341155  0.647985  1
  P  P8  1  0.365315  0.277627  0.431122  1
  P  P9  1  0.645600  0.047511  0.783318  1
  P  P10  1  0.767179  0.232402  0.955637  1
  P  P11  1  0.103377  0.032594  0.309247  1
  P  P12  1  0.232821  0.732402  0.544363  1
  P  P13  1  0.354400  0.547511  0.716682  1
  P  P14  1  0.896623  0.532594  0.190753  1
  P  P15  1  0.365315  0.222373  0.931122  1
  P  P16  1  0.634685  0.777627  0.068878  1
  P  P17  1  0.103377  0.467406  0.809247  1
  P  P18  1  0.645600  0.452489  0.283318  1
  P  P19  1  0.767179  0.267598  0.455637  1
  P  P20  1  0.896623  0.967406  0.690753  1
  P  P21  1  0.232821  0.767598  0.044363  1
  P  P22  1  0.354400  0.952489  0.216682  1
  P  P23  1  0.634685  0.722373  0.568878  1
  O  O24  1  0.892795  0.373226  0.966682  1
  O  O25  1  0.796927  0.122905  0.878650  1
  O  O26  1  0.207428  0.069558  0.238039  1
  O  O27  1  0.430330  0.290257  0.535263  1
  O  O28  1  0.571875  0.164591  0.705398  1
  O  O29  1  0.455543  0.785003  0.594330  1
  O  O30  1  0.267677  0.411574  0.370117  1
  O  O31  1  0.503817  0.456059  0.698567  1
  O  O32  1  0.234366  0.123950  0.403546  1
  O  O33  1  0.091400  0.608884  0.227269  1
  O  O34  1  0.496183  0.956059  0.801433  1
  O  O35  1  0.113851  0.863793  0.335945  1
  O  O36  1  0.204481  0.638797  0.458691  1
  O  O37  1  0.544457  0.285003  0.905670  1
  O  O38  1  0.428125  0.664591  0.794602  1
  O  O39  1  0.569670  0.790257  0.964737  1
  O  O40  1  0.795519  0.138797  0.041309  1
  O  O41  1  0.886149  0.363793  0.164055  1
  O  O42  1  0.203073  0.622905  0.621350  1
  O  O43  1  0.908600  0.108884  0.272731  1
  O  O44  1  0.107205  0.873226  0.533318  1
  O  O45  1  0.765634  0.623950  0.096454  1
  O  O46  1  0.207428  0.430442  0.738039  1
  O  O47  1  0.732323  0.911574  0.129883  1
  O  O48  1  0.267677  0.088426  0.870117  1
  O  O49  1  0.792572  0.569558  0.261961  1
  O  O50  1  0.234366  0.376050  0.903546  1
  O  O51  1  0.892795  0.126774  0.466682  1
  O  O52  1  0.091400  0.891116  0.727269  1
  O  O53  1  0.796927  0.377095  0.378650  1
  O  O54  1  0.113851  0.636207  0.835945  1
  O  O55  1  0.204481  0.861203  0.958691  1
  O  O56  1  0.430330  0.209743  0.035263  1
  O  O57  1  0.571875  0.335409  0.205398  1
  O  O58  1  0.455543  0.714997  0.094330  1
  O  O59  1  0.795519  0.361203  0.541309  1
  O  O60  1  0.886149  0.136207  0.664055  1
  O  O61  1  0.503817  0.043941  0.198567  1
  O  O62  1  0.908600  0.391116  0.772731  1
  O  O63  1  0.765634  0.876050  0.596454  1
  O  O64  1  0.496183  0.543941  0.301433  1
  O  O65  1  0.732323  0.588426  0.629883  1
  O  O66  1  0.544457  0.214997  0.405670  1
  O  O67  1  0.428125  0.835409  0.294602  1
  O  O68  1  0.569670  0.709743  0.464737  1
  O  O69  1  0.792572  0.930442  0.761961  1
  O  O70  1  0.203073  0.877095  0.121350  1
  O  O71  1  0.107205  0.626774  0.033318  1
