# generated using pymatgen
data_BH10C2N5O3
_symmetry_space_group_name_H-M   'P 1'
_cell_length_a   6.96573170
_cell_length_b   9.63846508
_cell_length_c   10.97972341
_cell_angle_alpha   90.00000000
_cell_angle_beta   90.00000000
_cell_angle_gamma   90.00000000
_symmetry_Int_Tables_number   1
_chemical_formula_structural   BH10C2N5O3
_chemical_formula_sum   'B4 H40 C8 N20 O12'
_cell_volume   737.16723002
_cell_formula_units_Z   4
loop_
 _symmetry_equiv_pos_site_id
 _symmetry_equiv_pos_as_xyz
  1  'x, y, z'
loop_
 _atom_site_type_symbol
 _atom_site_label
 _atom_site_symmetry_multiplicity
 _atom_site_fract_x
 _atom_site_fract_y
 _atom_site_fract_z
 _atom_site_occupancy
  B  B0  1  0.855952  0.058887  0.936708  1
  B  B1  1  0.644048  0.941113  0.436708  1
  B  B2  1  0.355952  0.441113  0.063292  1
  B  B3  1  0.144048  0.558887  0.563292  1
  H  H4  1  0.871832  0.191873  0.771445  1
  H  H5  1  0.628168  0.808127  0.271445  1
  H  H6  1  0.371832  0.308127  0.228555  1
  H  H7  1  0.128168  0.691873  0.728555  1
  H  H8  1  0.834084  0.030092  0.137698  1
  H  H9  1  0.665916  0.969908  0.637698  1
  H  H10  1  0.334084  0.469908  0.862302  1
  H  H11  1  0.165916  0.530092  0.362302  1
  H  H12  1  0.144423  0.024845  0.933220  1
  H  H13  1  0.355577  0.975155  0.433220  1
  H  H14  1  0.644423  0.475155  0.066780  1
  H  H15  1  0.855577  0.524845  0.566780  1
  H  H16  1  0.569800  0.028696  0.913873  1
  H  H17  1  0.930200  0.971304  0.413873  1
  H  H18  1  0.069800  0.471304  0.086127  1
  H  H19  1  0.430200  0.528696  0.586127  1
  H  H20  1  0.902610  0.425948  0.754192  1
  H  H21  1  0.597390  0.574052  0.254192  1
  H  H22  1  0.402610  0.074052  0.245808  1
  H  H23  1  0.097390  0.925948  0.745808  1
  H  H24  1  0.907283  0.527849  0.882510  1
  H  H25  1  0.592717  0.472151  0.382510  1
  H  H26  1  0.407283  0.972151  0.117490  1
  H  H27  1  0.092717  0.027849  0.617490  1
  H  H28  1  0.838743  0.358660  0.261415  1
  H  H29  1  0.661257  0.641340  0.761415  1
  H  H30  1  0.338743  0.141340  0.738585  1
  H  H31  1  0.161257  0.858660  0.238585  1
  H  H32  1  0.834445  0.179131  0.293590  1
  H  H33  1  0.665555  0.820869  0.793590  1
  H  H34  1  0.334445  0.320869  0.706410  1
  H  H35  1  0.165555  0.679131  0.206410  1
  H  H36  1  0.450783  0.206850  0.419729  1
  H  H37  1  0.049217  0.793150  0.919729  1
  H  H38  1  0.950783  0.293150  0.580271  1
  H  H39  1  0.549217  0.706850  0.080271  1
  H  H40  1  0.363775  0.347097  0.475641  1
  H  H41  1  0.136225  0.652903  0.975641  1
  H  H42  1  0.863775  0.152903  0.524359  1
  H  H43  1  0.636225  0.847097  0.024359  1
  C  C44  1  0.860916  0.322730  0.915331  1
  C  C45  1  0.639084  0.677270  0.415331  1
  C  C46  1  0.360916  0.177270  0.084669  1
  C  C47  1  0.139084  0.822730  0.584669  1
  C  C48  1  0.849032  0.234634  0.112309  1
  C  C49  1  0.650968  0.765366  0.612309  1
  C  C50  1  0.349032  0.265366  0.887691  1
  C  C51  1  0.150968  0.734634  0.387691  1
  N  N52  1  0.862678  0.196636  0.865267  1
  N  N53  1  0.637322  0.803364  0.365267  1
  N  N54  1  0.362678  0.303364  0.134733  1
  N  N55  1  0.137322  0.696636  0.634733  1
  N  N56  1  0.854956  0.346851  0.037492  1
  N  N57  1  0.645044  0.653149  0.537492  1
  N  N58  1  0.354956  0.153149  0.962508  1
  N  N59  1  0.145044  0.846851  0.462508  1
  N  N60  1  0.843455  0.104159  0.071684  1
  N  N61  1  0.656545  0.895841  0.571684  1
  N  N62  1  0.343455  0.395841  0.928316  1
  N  N63  1  0.156545  0.604159  0.428316  1
  N  N64  1  0.861558  0.437119  0.843540  1
  N  N65  1  0.638442  0.562881  0.343540  1
  N  N66  1  0.361558  0.062881  0.156460  1
  N  N67  1  0.138442  0.937119  0.656460  1
  N  N68  1  0.851583  0.259595  0.232666  1
  N  N69  1  0.648417  0.740405  0.732666  1
  N  N70  1  0.351583  0.240405  0.767334  1
  N  N71  1  0.148417  0.759595  0.267334  1
  O  O72  1  0.026300  0.971774  0.913373  1
  O  O73  1  0.473700  0.028226  0.413374  1
  O  O74  1  0.526300  0.528226  0.086627  1
  O  O75  1  0.973700  0.471774  0.586627  1
  O  O76  1  0.688300  0.973305  0.902003  1
  O  O77  1  0.811700  0.026695  0.402003  1
  O  O78  1  0.188300  0.526695  0.097997  1
  O  O79  1  0.311700  0.473305  0.597997  1
  O  O80  1  0.424652  0.306488  0.402333  1
  O  O81  1  0.075348  0.693512  0.902333  1
  O  O82  1  0.924652  0.193512  0.597667  1
  O  O83  1  0.575348  0.806488  0.097667  1
