# generated using pymatgen
data_Dy3Al5O12
_symmetry_space_group_name_H-M   'P 1'
_cell_length_a   10.49295865
_cell_length_b   10.49295865
_cell_length_c   10.49295865
_cell_angle_alpha   109.47122063
_cell_angle_beta   109.47122063
_cell_angle_gamma   109.47122063
_symmetry_Int_Tables_number   1
_chemical_formula_structural   Dy3Al5O12
_chemical_formula_sum   'Dy12 Al20 O48'
_cell_volume   889.34853505
_cell_formula_units_Z   4
loop_
 _symmetry_equiv_pos_site_id
 _symmetry_equiv_pos_as_xyz
  1  'x, y, z'
loop_
 _atom_site_type_symbol
 _atom_site_label
 _atom_site_symmetry_multiplicity
 _atom_site_fract_x
 _atom_site_fract_y
 _atom_site_fract_z
 _atom_site_occupancy
  Dy  Dy0  1  0.250000  0.875000  0.625000  1
  Dy  Dy1  1  0.125000  0.375000  0.750000  1
  Dy  Dy2  1  0.125000  0.250000  0.375000  1
  Dy  Dy3  1  0.625000  0.875000  0.750000  1
  Dy  Dy4  1  0.375000  0.750000  0.125000  1
  Dy  Dy5  1  0.250000  0.375000  0.125000  1
  Dy  Dy6  1  0.750000  0.625000  0.875000  1
  Dy  Dy7  1  0.625000  0.250000  0.875000  1
  Dy  Dy8  1  0.375000  0.125000  0.250000  1
  Dy  Dy9  1  0.875000  0.750000  0.625000  1
  Dy  Dy10  1  0.875000  0.625000  0.250000  1
  Dy  Dy11  1  0.750000  0.125000  0.375000  1
  Al  Al12  1  0.125000  0.750000  0.875000  1
  Al  Al13  1  1.000000  0.500000  0.500000  1
  Al  Al14  1  0.125000  0.875000  0.250000  1
  Al  Al15  1  1.000000  0.500000  0.000000  1
  Al  Al16  1  0.000000  0.000000  0.500000  1
  Al  Al17  1  0.375000  0.625000  0.750000  1
  Al  Al18  1  0.250000  0.625000  0.375000  1
  Al  Al19  1  0.250000  0.125000  0.875000  1
  Al  Al20  1  0.000000  0.000000  0.000000  1
  Al  Al21  1  0.375000  0.250000  0.625000  1
  Al  Al22  1  0.500000  0.500000  0.500000  1
  Al  Al23  1  0.625000  0.750000  0.375000  1
  Al  Al24  1  0.500000  1.000000  0.500000  1
  Al  Al25  1  0.500000  0.500000  0.000000  1
  Al  Al26  1  0.750000  0.375000  0.625000  1
  Al  Al27  1  0.750000  0.875000  0.125000  1
  Al  Al28  1  0.625000  0.375000  0.250000  1
  Al  Al29  1  0.500000  0.000000  0.000000  1
  Al  Al30  1  0.875000  0.125000  0.750000  1
  Al  Al31  1  0.875000  0.250000  0.125000  1
  O  O32  1  0.098353  0.979725  0.679491  1
  O  O33  1  0.118628  0.598353  0.918862  1
  O  O34  1  0.020275  0.320509  0.901647  1
  O  O35  1  0.081138  0.699766  0.679491  1
  O  O36  1  0.081138  0.881372  0.401647  1
  O  O37  1  0.098353  0.618628  0.418862  1
  O  O38  1  0.179491  0.479725  0.598353  1
  O  O39  1  0.418862  0.820509  0.800234  1
  O  O40  1  0.381372  0.581138  0.901647  1
  O  O41  1  0.300234  0.320509  0.918862  1
  O  O42  1  0.320509  0.918862  0.300234  1
  O  O43  1  0.020275  0.199766  0.118628  1
  O  O44  1  0.179491  0.199766  0.581138  1
  O  O45  1  0.199766  0.581138  0.179491  1
  O  O46  1  0.401647  0.820509  0.520275  1
  O  O47  1  0.320509  0.901647  0.020275  1
  O  O48  1  0.300234  0.479725  0.381372  1
  O  O49  1  0.118628  0.020275  0.199766  1
  O  O50  1  0.520275  0.618628  0.699766  1
  O  O51  1  0.401647  0.081138  0.881372  1
  O  O52  1  0.520275  0.401647  0.820509  1
  O  O53  1  0.381372  0.300234  0.479725  1
  O  O54  1  0.581138  0.901647  0.381372  1
  O  O55  1  0.199766  0.118628  0.020275  1
  O  O56  1  0.800234  0.881372  0.979725  1
  O  O57  1  0.418862  0.098353  0.618628  1
  O  O58  1  0.618628  0.699766  0.520275  1
  O  O59  1  0.479725  0.598353  0.179491  1
  O  O60  1  0.598353  0.918862  0.118628  1
  O  O61  1  0.479725  0.381372  0.300234  1
  O  O62  1  0.881372  0.979725  0.800234  1
  O  O63  1  0.699766  0.520275  0.618628  1
  O  O64  1  0.679491  0.098353  0.979725  1
  O  O65  1  0.598353  0.179491  0.479725  1
  O  O66  1  0.800234  0.418862  0.820509  1
  O  O67  1  0.820509  0.800234  0.418862  1
  O  O68  1  0.979725  0.800234  0.881372  1
  O  O69  1  0.679491  0.081138  0.699766  1
  O  O70  1  0.699766  0.679491  0.081138  1
  O  O71  1  0.618628  0.418862  0.098353  1
  O  O72  1  0.581138  0.179491  0.199766  1
  O  O73  1  0.820509  0.520275  0.401647  1
  O  O74  1  0.901647  0.381372  0.581138  1
  O  O75  1  0.918862  0.118628  0.598353  1
  O  O76  1  0.918862  0.300234  0.320509  1
  O  O77  1  0.979725  0.679491  0.098353  1
  O  O78  1  0.881372  0.401647  0.081138  1
  O  O79  1  0.901647  0.020275  0.320509  1
