# generated using pymatgen
data_KLiSb(PO4)2
_symmetry_space_group_name_H-M   'P 1'
_cell_length_a   5.03997359
_cell_length_b   8.60573718
_cell_length_c   13.21739445
_cell_angle_alpha   108.10860560
_cell_angle_beta   100.97712658
_cell_angle_gamma   89.85422538
_symmetry_Int_Tables_number   1
_chemical_formula_structural   KLiSb(PO4)2
_chemical_formula_sum   'K3 Li3 Sb3 P6 O24'
_cell_volume   533.92317370
_cell_formula_units_Z   3
loop_
 _symmetry_equiv_pos_site_id
 _symmetry_equiv_pos_as_xyz
  1  'x, y, z'
loop_
 _atom_site_type_symbol
 _atom_site_label
 _atom_site_symmetry_multiplicity
 _atom_site_fract_x
 _atom_site_fract_y
 _atom_site_fract_z
 _atom_site_occupancy
  K  K0  1  0.179204  0.792316  0.348984  1
  K  K1  1  0.506471  0.502523  0.002247  1
  K  K2  1  0.814645  0.163985  0.659651  1
  Li  Li3  1  0.028119  0.743433  0.085935  1
  Li  Li4  1  0.972194  0.259386  0.905177  1
  Li  Li5  1  0.703123  0.054926  0.405213  1
  Sb  Sb6  1  0.335221  0.665528  0.669461  1
  Sb  Sb7  1  0.663115  0.346303  0.323259  1
  Sb  Sb8  1  0.999437  0.003276  0.002597  1
  P  P9  1  0.089424  0.413395  0.161502  1
  P  P10  1  0.251394  0.276450  0.492989  1
  P  P11  1  0.410129  0.064472  0.829653  1
  P  P12  1  0.583331  0.920602  0.176784  1
  P  P13  1  0.754285  0.734381  0.514411  1
  P  P14  1  0.911921  0.593338  0.824924  1
  O  O15  1  0.067415  0.728464  0.926661  1
  O  O16  1  0.050561  0.568015  0.724010  1
  O  O17  1  0.054717  0.684182  0.543313  1
  O  O18  1  0.298148  0.108841  0.938478  1
  O  O19  1  0.267133  0.888534  0.758210  1
  O  O20  1  0.098191  0.566539  0.128568  1
  O  O21  1  0.298990  0.132077  0.534739  1
  O  O22  1  0.326823  0.193709  0.776785  1
  O  O23  1  0.400925  0.440440  0.580056  1
  O  O24  1  0.382372  0.241449  0.389700  1
  O  O25  1  0.274283  0.940658  0.142070  1
  O  O26  1  0.616417  0.650055  0.794870  1
  O  O27  1  0.383464  0.352660  0.183866  1
  O  O28  1  0.723337  0.054009  0.853915  1
  O  O29  1  0.621781  0.765142  0.617275  1
  O  O30  1  0.590761  0.590847  0.419948  1
  O  O31  1  0.633215  0.801952  0.242332  1
  O  O32  1  0.757384  0.888748  0.482702  1
  O  O33  1  0.893270  0.434894  0.851214  1
  O  O34  1  0.727195  0.091488  0.256183  1
  O  O35  1  0.707482  0.862725  0.073115  1
  O  O36  1  0.940438  0.297620  0.463160  1
  O  O37  1  0.975121  0.449730  0.268110  1
  O  O38  1  0.916467  0.277599  0.063735  1
