# generated using pymatgen
data_NbCrO4
_symmetry_space_group_name_H-M   'P 1'
_cell_length_a   5.59131433
_cell_length_b   5.59131433
_cell_length_c   5.59131433
_cell_angle_alpha   138.60768920
_cell_angle_beta   138.60768920
_cell_angle_gamma   59.97355755
_symmetry_Int_Tables_number   1
_chemical_formula_structural   NbCrO4
_chemical_formula_sum   'Nb1 Cr1 O4'
_cell_volume   75.64024985
_cell_formula_units_Z   1
loop_
 _symmetry_equiv_pos_site_id
 _symmetry_equiv_pos_as_xyz
  1  'x, y, z'
loop_
 _atom_site_type_symbol
 _atom_site_label
 _atom_site_symmetry_multiplicity
 _atom_site_fract_x
 _atom_site_fract_y
 _atom_site_fract_z
 _atom_site_occupancy
  Nb  Nb0  1  0.000000  0.000000  0.000000  1
  Cr  Cr1  1  0.750000  0.250000  0.500000  1
  O  O2  1  0.540382  0.040382  0.500000  1
  O  O3  1  0.206695  0.206695  0.000000  1
  O  O4  1  0.959618  0.459618  0.500000  1
  O  O5  1  0.793305  0.793305  0.000000  1
