# generated using pymatgen
data_Na5LiMn2P2(CO7)2
_symmetry_space_group_name_H-M   'P 1'
_cell_length_a   6.81277370
_cell_length_b   8.96273795
_cell_length_c   10.32978841
_cell_angle_alpha   90.11940482
_cell_angle_beta   90.11229147
_cell_angle_gamma   90.23437339
_symmetry_Int_Tables_number   1
_chemical_formula_structural   Na5LiMn2P2(CO7)2
_chemical_formula_sum   'Na10 Li2 Mn4 P4 C4 O28'
_cell_volume   630.74042950
_cell_formula_units_Z   2
loop_
 _symmetry_equiv_pos_site_id
 _symmetry_equiv_pos_as_xyz
  1  'x, y, z'
loop_
 _atom_site_type_symbol
 _atom_site_label
 _atom_site_symmetry_multiplicity
 _atom_site_fract_x
 _atom_site_fract_y
 _atom_site_fract_z
 _atom_site_occupancy
  Na  Na0  1  0.250115  0.917126  0.879738  1
  Na  Na1  1  0.248902  0.917647  0.380579  1
  Na  Na2  1  0.001726  0.741499  0.624180  1
  Na  Na3  1  0.498384  0.741462  0.624063  1
  Na  Na4  1  0.002322  0.740710  0.123957  1
  Na  Na5  1  0.497759  0.740590  0.123860  1
  Na  Na6  1  0.501838  0.259126  0.875372  1
  Na  Na7  1  0.998179  0.258958  0.875486  1
  Na  Na8  1  0.502624  0.258509  0.376876  1
  Na  Na9  1  0.751034  0.083720  0.120599  1
  Li  Li10  1  0.994327  0.264114  0.378686  1
  Li  Li11  1  0.751114  0.083919  0.619744  1
  Mn  Mn12  1  0.749990  0.638698  0.888538  1
  Mn  Mn13  1  0.750152  0.638207  0.388792  1
  Mn  Mn14  1  0.248380  0.359085  0.610282  1
  Mn  Mn15  1  0.249135  0.360369  0.112320  1
  P  P16  1  0.249941  0.588841  0.850842  1
  P  P17  1  0.247313  0.587414  0.350722  1
  P  P18  1  0.750063  0.407363  0.647815  1
  P  P19  1  0.752078  0.409661  0.149935  1
  C  C20  1  0.750044  0.941098  0.865207  1
  C  C21  1  0.753786  0.945718  0.370868  1
  C  C22  1  0.249277  0.059946  0.631608  1
  C  C23  1  0.248749  0.060218  0.132897  1
  O  O24  1  0.250327  0.916572  0.641962  1
  O  O25  1  0.250350  0.916686  0.143207  1
  O  O26  1  0.750245  0.879496  0.979730  1
  O  O27  1  0.749602  0.887595  0.486570  1
  O  O28  1  0.750212  0.856288  0.762881  1
  O  O29  1  0.749518  0.857987  0.269646  1
  O  O30  1  0.067184  0.681238  0.892146  1
  O  O31  1  0.433447  0.681631  0.892316  1
  O  O32  1  0.066316  0.681472  0.392339  1
  O  O33  1  0.432455  0.677669  0.393476  1
  O  O34  1  0.249696  0.571079  0.700074  1
  O  O35  1  0.750043  0.566291  0.588117  1
  O  O36  1  0.249534  0.572322  0.200041  1
  O  O37  1  0.750204  0.568862  0.090850  1
  O  O38  1  0.250016  0.430793  0.911375  1
  O  O39  1  0.751775  0.426968  0.798355  1
  O  O40  1  0.240140  0.426948  0.408544  1
  O  O41  1  0.757908  0.424101  0.301304  1
  O  O42  1  0.567130  0.313122  0.607576  1
  O  O43  1  0.930500  0.312829  0.604538  1
  O  O44  1  0.567222  0.318380  0.108774  1
  O  O45  1  0.933477  0.318136  0.106093  1
  O  O46  1  0.249382  0.144281  0.734829  1
  O  O47  1  0.246348  0.144831  0.235991  1
  O  O48  1  0.248217  0.123324  0.517878  1
  O  O49  1  0.249905  0.123007  0.018974  1
  O  O50  1  0.749738  0.084692  0.852405  1
  O  O51  1  0.761874  0.089404  0.357045  1
