# generated using pymatgen
data_LiZr2O4
_symmetry_space_group_name_H-M   'P 1'
_cell_length_a   6.44824349
_cell_length_b   6.44824349
_cell_length_c   6.44824349
_cell_angle_alpha   60.00000000
_cell_angle_beta   60.00000000
_cell_angle_gamma   60.00000000
_symmetry_Int_Tables_number   1
_chemical_formula_structural   LiZr2O4
_chemical_formula_sum   'Li2 Zr4 O8'
_cell_volume   189.58732006
_cell_formula_units_Z   2
loop_
 _symmetry_equiv_pos_site_id
 _symmetry_equiv_pos_as_xyz
  1  'x, y, z'
loop_
 _atom_site_type_symbol
 _atom_site_label
 _atom_site_symmetry_multiplicity
 _atom_site_fract_x
 _atom_site_fract_y
 _atom_site_fract_z
 _atom_site_occupancy
  Li  Li0  1  0.750000  0.750000  0.750000  1
  Li  Li1  1  0.500000  0.500000  0.500000  1
  Zr  Zr2  1  0.125000  0.125000  0.125000  1
  Zr  Zr3  1  0.125000  0.125000  0.625000  1
  Zr  Zr4  1  0.125000  0.625000  0.125000  1
  Zr  Zr5  1  0.625000  0.125000  0.125000  1
  O  O6  1  0.362570  0.362570  0.912289  1
  O  O7  1  0.887430  0.887430  0.887430  1
  O  O8  1  0.337711  0.887430  0.887430  1
  O  O9  1  0.887430  0.337711  0.887430  1
  O  O10  1  0.362570  0.912289  0.362570  1
  O  O11  1  0.912289  0.362570  0.362570  1
  O  O12  1  0.362570  0.362570  0.362570  1
  O  O13  1  0.887430  0.887430  0.337711  1
