# generated using pymatgen
data_LiVCr(P2O7)2
_symmetry_space_group_name_H-M   'P 1'
_cell_length_a   7.16441904
_cell_length_b   8.06506190
_cell_length_c   13.65595103
_cell_angle_alpha   89.88317365
_cell_angle_beta   82.78562394
_cell_angle_gamma   89.90339077
_symmetry_Int_Tables_number   1
_chemical_formula_structural   LiVCr(P2O7)2
_chemical_formula_sum   'Li3 V3 Cr3 P12 O42'
_cell_volume   782.81184108
_cell_formula_units_Z   3
loop_
 _symmetry_equiv_pos_site_id
 _symmetry_equiv_pos_as_xyz
  1  'x, y, z'
loop_
 _atom_site_type_symbol
 _atom_site_label
 _atom_site_symmetry_multiplicity
 _atom_site_fract_x
 _atom_site_fract_y
 _atom_site_fract_z
 _atom_site_occupancy
  Li  Li0  1  0.158759  0.864405  0.166245  1
  Li  Li1  1  0.824180  0.864288  0.500627  1
  Li  Li2  1  0.838637  0.362183  0.833089  1
  V  V3  1  0.116072  0.494855  0.162442  1
  V  V4  1  0.780733  0.495407  0.494583  1
  V  V5  1  0.442949  0.507057  0.828814  1
  Cr  Cr6  1  0.556544  0.006185  0.169819  1
  Cr  Cr7  1  0.225107  0.005497  0.505120  1
  Cr  Cr8  1  0.886739  0.997132  0.837738  1
  P  P9  1  0.867747  0.781577  0.043297  1
  P  P10  1  0.479769  0.677787  0.041770  1
  P  P11  1  0.796070  0.281140  0.287704  1
  P  P12  1  0.185439  0.179808  0.294577  1
  P  P13  1  0.534681  0.782797  0.376061  1
  P  P14  1  0.147340  0.679145  0.375372  1
  P  P15  1  0.850395  0.180592  0.626941  1
  P  P16  1  0.461813  0.282638  0.623141  1
  P  P17  1  0.817333  0.682839  0.707101  1
  P  P18  1  0.204452  0.783354  0.709921  1
  P  P19  1  0.521821  0.176455  0.959497  1
  P  P20  1  0.133494  0.281481  0.955197  1
  O  O21  1  0.696875  0.646931  0.053415  1
  O  O22  1  0.811726  0.934139  0.106218  1
  O  O23  1  0.538708  0.180588  0.068591  1
  O  O24  1  0.423167  0.847795  0.085017  1
  O  O25  1  0.370576  0.538250  0.099099  1
  O  O26  1  0.867499  0.435051  0.226661  1
  O  O27  1  0.083764  0.330920  0.064418  1
  O  O28  1  0.964778  0.147011  0.283212  1
  O  O29  1  0.027716  0.687740  0.086123  1
  O  O30  1  0.634353  0.189733  0.253875  1
  O  O31  1  0.586952  0.823555  0.267969  1
  O  O32  1  0.284291  0.042212  0.230703  1
  O  O33  1  0.231861  0.352531  0.248764  1
  O  O34  1  0.130370  0.677294  0.263374  1
  O  O35  1  0.749420  0.333785  0.396964  1
  O  O36  1  0.695646  0.688827  0.418097  1
  O  O37  1  0.364200  0.647816  0.387020  1
  O  O38  1  0.479104  0.934095  0.440257  1
  O  O39  1  0.209743  0.178254  0.402112  1
  O  O40  1  0.951086  0.041703  0.566035  1
  O  O41  1  0.898545  0.352577  0.581567  1
  O  O42  1  0.090643  0.848747  0.419853  1
  O  O43  1  0.037403  0.538717  0.430716  1
  O  O44  1  0.795608  0.674974  0.595758  1
  O  O45  1  0.533872  0.434690  0.560412  1
  O  O46  1  0.630952  0.147597  0.617440  1
  O  O47  1  0.300318  0.190591  0.589435  1
  O  O48  1  0.255809  0.824722  0.601703  1
  O  O49  1  0.875335  0.182403  0.735978  1
  O  O50  1  0.764720  0.852711  0.747406  1
  O  O51  1  0.712157  0.540783  0.766461  1
  O  O52  1  0.418488  0.338314  0.731814  1
  O  O53  1  0.363319  0.682851  0.747813  1
  O  O54  1  0.967787  0.196894  0.917284  1
  O  O55  1  0.033409  0.645275  0.718456  1
  O  O56  1  0.922330  0.818696  0.935003  1
  O  O57  1  0.140334  0.932211  0.773214  1
  O  O58  1  0.624452  0.038965  0.900510  1
  O  O59  1  0.571897  0.348194  0.910626  1
  O  O60  1  0.461439  0.667548  0.930699  1
  O  O61  1  0.193692  0.436746  0.892691  1
  O  O62  1  0.299372  0.148285  0.947970  1
