# generated using pymatgen
data_Li3Cr(BO3)2
_symmetry_space_group_name_H-M   'P 1'
_cell_length_a   5.26296843
_cell_length_b   8.70554584
_cell_length_c   10.77112975
_cell_angle_alpha   90.00000000
_cell_angle_beta   116.44439708
_cell_angle_gamma   90.00000000
_symmetry_Int_Tables_number   1
_chemical_formula_structural   Li3Cr(BO3)2
_chemical_formula_sum   'Li12 Cr4 B8 O24'
_cell_volume   441.86447906
_cell_formula_units_Z   4
loop_
 _symmetry_equiv_pos_site_id
 _symmetry_equiv_pos_as_xyz
  1  'x, y, z'
loop_
 _atom_site_type_symbol
 _atom_site_label
 _atom_site_symmetry_multiplicity
 _atom_site_fract_x
 _atom_site_fract_y
 _atom_site_fract_z
 _atom_site_occupancy
  Li  Li0  1  0.522852  0.957514  0.147493  1
  Li  Li1  1  0.440572  0.652155  0.123586  1
  Li  Li2  1  0.559428  0.152155  0.376414  1
  Li  Li3  1  0.923087  0.969237  0.613446  1
  Li  Li4  1  0.477148  0.457514  0.352507  1
  Li  Li5  1  0.076913  0.469237  0.886554  1
  Li  Li6  1  0.923087  0.530763  0.113446  1
  Li  Li7  1  0.522852  0.542486  0.647493  1
  Li  Li8  1  0.076913  0.030763  0.386554  1
  Li  Li9  1  0.440572  0.847845  0.623586  1
  Li  Li10  1  0.559428  0.347845  0.876414  1
  Li  Li11  1  0.477148  0.042486  0.852507  1
  Cr  Cr12  1  0.013831  0.290138  0.624330  1
  Cr  Cr13  1  0.013831  0.209862  0.124330  1
  Cr  Cr14  1  0.986169  0.790138  0.875670  1
  Cr  Cr15  1  0.986169  0.709862  0.375670  1
  B  B16  1  0.451397  0.304857  0.117905  1
  B  B17  1  0.970431  0.643016  0.634644  1
  B  B18  1  0.548603  0.804857  0.382095  1
  B  B19  1  0.029569  0.143016  0.865356  1
  B  B20  1  0.970431  0.856984  0.134644  1
  B  B21  1  0.451397  0.195143  0.617905  1
  B  B22  1  0.029569  0.356984  0.365356  1
  B  B23  1  0.548603  0.695143  0.882095  1
  O  O24  1  0.833645  0.325070  0.415246  1
  O  O25  1  0.758260  0.910649  0.392722  1
  O  O26  1  0.326765  0.655951  0.909544  1
  O  O27  1  0.592221  0.659081  0.343401  1
  O  O28  1  0.166994  0.262290  0.832442  1
  O  O29  1  0.407779  0.159081  0.156599  1
  O  O30  1  0.108220  0.996669  0.847251  1
  O  O31  1  0.891780  0.496669  0.652749  1
  O  O32  1  0.241740  0.410649  0.107278  1
  O  O33  1  0.833006  0.762290  0.667558  1
  O  O34  1  0.166355  0.825070  0.084754  1
  O  O35  1  0.673235  0.155951  0.590456  1
  O  O36  1  0.326765  0.844049  0.409544  1
  O  O37  1  0.833645  0.174930  0.915246  1
  O  O38  1  0.166994  0.237710  0.332442  1
  O  O39  1  0.758260  0.589351  0.892722  1
  O  O40  1  0.108220  0.503331  0.347251  1
  O  O41  1  0.891780  0.003331  0.152749  1
  O  O42  1  0.592221  0.840919  0.843401  1
  O  O43  1  0.833006  0.737710  0.167558  1
  O  O44  1  0.407779  0.340919  0.656599  1
  O  O45  1  0.673235  0.344049  0.090456  1
  O  O46  1  0.241740  0.089351  0.607278  1
  O  O47  1  0.166355  0.674930  0.584754  1
