# generated using pymatgen
data_Fe9(PO4)8
_symmetry_space_group_name_H-M   'P 1'
_cell_length_a   8.82179982
_cell_length_b   8.94020332
_cell_length_c   9.35225793
_cell_angle_alpha   111.46221939
_cell_angle_beta   101.80784967
_cell_angle_gamma   101.00497530
_symmetry_Int_Tables_number   1
_chemical_formula_structural   Fe9(PO4)8
_chemical_formula_sum   'Fe9 P8 O32'
_cell_volume   642.69791769
_cell_formula_units_Z   1
loop_
 _symmetry_equiv_pos_site_id
 _symmetry_equiv_pos_as_xyz
  1  'x, y, z'
loop_
 _atom_site_type_symbol
 _atom_site_label
 _atom_site_symmetry_multiplicity
 _atom_site_fract_x
 _atom_site_fract_y
 _atom_site_fract_z
 _atom_site_occupancy
  Fe  Fe0  1  0.797409  0.265352  0.067752  1
  Fe  Fe1  1  0.286209  0.142886  0.570298  1
  Fe  Fe2  1  0.316340  0.704165  0.459063  1
  Fe  Fe3  1  0.000000  0.500000  0.500000  1
  Fe  Fe4  1  0.713791  0.857114  0.429702  1
  Fe  Fe5  1  0.683660  0.295835  0.540937  1
  Fe  Fe6  1  0.500000  0.500000  0.000000  1
  Fe  Fe7  1  0.202591  0.734648  0.932248  1
  Fe  Fe8  1  0.000000  0.000000  0.000000  1
  P  P9  1  0.396634  0.962444  0.299280  1
  P  P10  1  0.835878  0.619465  0.901115  1
  P  P11  1  0.164122  0.380535  0.098885  1
  P  P12  1  0.666161  0.455591  0.276645  1
  P  P13  1  0.938048  0.123141  0.347271  1
  P  P14  1  0.333839  0.544409  0.723355  1
  P  P15  1  0.603366  0.037556  0.700720  1
  P  P16  1  0.061952  0.876859  0.652729  1
  O  O17  1  0.197758  0.498343  0.283311  1
  O  O18  1  0.123982  0.179482  0.417138  1
  O  O19  1  0.892372  0.127512  0.178225  1
  O  O20  1  0.131345  0.742513  0.545438  1
  O  O21  1  0.716478  0.131146  0.631814  1
  O  O22  1  0.183214  0.208060  0.079171  1
  O  O23  1  0.868419  0.949556  0.341507  1
  O  O24  1  0.980041  0.351172  0.016853  1
  O  O25  1  0.695877  0.062507  0.868888  1
  O  O26  1  0.551242  0.910271  0.292962  1
  O  O27  1  0.378632  0.584055  0.590267  1
  O  O28  1  0.149306  0.527618  0.707576  1
  O  O29  1  0.107628  0.872488  0.821775  1
  O  O30  1  0.725771  0.528791  0.969555  1
  O  O31  1  0.283522  0.868854  0.368186  1
  O  O32  1  0.304123  0.937493  0.131112  1
  O  O33  1  0.802242  0.501657  0.716689  1
  O  O34  1  0.850694  0.472382  0.292424  1
  O  O35  1  0.019959  0.648828  0.983147  1
  O  O36  1  0.816786  0.791940  0.920829  1
  O  O37  1  0.556420  0.849014  0.570775  1
  O  O38  1  0.131581  0.050444  0.658493  1
  O  O39  1  0.274229  0.471209  0.030445  1
  O  O40  1  0.413972  0.684109  0.898879  1
  O  O41  1  0.443580  0.150986  0.429225  1
  O  O42  1  0.876018  0.820518  0.582862  1
  O  O43  1  0.868655  0.257487  0.454562  1
  O  O44  1  0.621368  0.415945  0.409733  1
  O  O45  1  0.586028  0.315891  0.101121  1
  O  O46  1  0.379219  0.384350  0.725003  1
  O  O47  1  0.620781  0.615650  0.274997  1
  O  O48  1  0.448758  0.089729  0.707038  1
