# generated using pymatgen
data_Sr3Li3La5O12
_symmetry_space_group_name_H-M   'P 1'
_cell_length_a   6.89585151
_cell_length_b   10.78300566
_cell_length_c   15.18721777
_cell_angle_alpha   90.00000000
_cell_angle_beta   117.04584507
_cell_angle_gamma   90.00000000
_symmetry_Int_Tables_number   1
_chemical_formula_structural   Sr3Li3La5O12
_chemical_formula_sum   'Sr9 Li9 La15 O36'
_cell_volume   1005.79530344
_cell_formula_units_Z   3
loop_
 _symmetry_equiv_pos_site_id
 _symmetry_equiv_pos_as_xyz
  1  'x, y, z'
loop_
 _atom_site_type_symbol
 _atom_site_label
 _atom_site_symmetry_multiplicity
 _atom_site_fract_x
 _atom_site_fract_y
 _atom_site_fract_z
 _atom_site_occupancy
  Sr  Sr0  1  0.303987  0.000000  0.218748  1
  Sr  Sr1  1  0.303175  0.333437  0.217225  1
  Sr  Sr2  1  0.303175  0.666563  0.217225  1
  Sr  Sr3  1  0.868349  0.000000  0.280455  1
  Sr  Sr4  1  0.866759  0.666883  0.279517  1
  Sr  Sr5  1  0.866759  0.333117  0.279517  1
  Sr  Sr6  1  0.119265  0.160983  0.718368  1
  Sr  Sr7  1  0.138714  0.500000  0.725627  1
  Sr  Sr8  1  0.119265  0.839017  0.718368  1
  Li  Li9  1  0.512646  0.165274  0.136639  1
  Li  Li10  1  0.512277  0.500000  0.135414  1
  Li  Li11  1  0.512646  0.834726  0.136639  1
  Li  Li12  1  0.241515  0.168009  0.363796  1
  Li  Li13  1  0.238827  0.500000  0.363016  1
  Li  Li14  1  0.241515  0.831991  0.363796  1
  Li  Li15  1  0.753520  0.338217  0.631827  1
  Li  Li16  1  0.753520  0.661783  0.631827  1
  Li  Li17  1  0.485900  0.000000  0.869460  1
  La  La18  1  0.794017  0.169257  0.039328  1
  La  La19  1  0.794509  0.500000  0.036034  1
  La  La20  1  0.794017  0.830743  0.039328  1
  La  La21  1  0.721403  0.163990  0.460525  1
  La  La22  1  0.712422  0.500000  0.455869  1
  La  La23  1  0.721403  0.836010  0.460525  1
  La  La24  1  0.283168  0.333961  0.538717  1
  La  La25  1  0.283168  0.666039  0.538717  1
  La  La26  1  0.303794  0.000000  0.541226  1
  La  La27  1  0.684323  0.171236  0.778565  1
  La  La28  1  0.678942  0.500000  0.785048  1
  La  La29  1  0.684323  0.828764  0.778565  1
  La  La30  1  0.226504  0.332755  0.957755  1
  La  La31  1  0.226504  0.667245  0.957755  1
  La  La32  1  0.207697  0.000000  0.961819  1
  O  O33  1  0.197370  0.832907  0.065462  1
  O  O34  1  0.197370  0.167093  0.065462  1
  O  O35  1  0.200349  0.500000  0.062640  1
  O  O36  1  0.609068  0.331414  0.095776  1
  O  O37  1  0.609068  0.668586  0.095776  1
  O  O38  1  0.612199  0.000000  0.098603  1
  O  O39  1  0.038525  0.167195  0.220683  1
  O  O40  1  0.038525  0.832805  0.220683  1
  O  O41  1  0.035639  0.500000  0.218757  1
  O  O42  1  0.598688  0.166292  0.281478  1
  O  O43  1  0.598688  0.833708  0.281478  1
  O  O44  1  0.597005  0.500000  0.279033  1
  O  O45  1  0.415387  0.664643  0.404610  1
  O  O46  1  0.415387  0.335357  0.404610  1
  O  O47  1  0.416692  0.000000  0.406639  1
  O  O48  1  0.073244  0.166973  0.436869  1
  O  O49  1  0.063714  0.500000  0.434243  1
  O  O50  1  0.073244  0.833027  0.436869  1
  O  O51  1  0.932093  0.332372  0.563990  1
  O  O52  1  0.932093  0.667628  0.563990  1
  O  O53  1  0.951732  0.000000  0.559851  1
  O  O54  1  0.578518  0.180271  0.602866  1
  O  O55  1  0.594561  0.500000  0.604674  1
  O  O56  1  0.578518  0.819729  0.602866  1
  O  O57  1  0.417814  0.000000  0.725791  1
  O  O58  1  0.414534  0.336173  0.717072  1
  O  O59  1  0.414534  0.663827  0.717072  1
  O  O60  1  0.939306  0.332602  0.773897  1
  O  O61  1  0.939306  0.667398  0.773897  1
  O  O62  1  0.945515  0.000000  0.784437  1
  O  O63  1  0.386011  0.846776  0.903045  1
  O  O64  1  0.386011  0.153224  0.903045  1
  O  O65  1  0.378442  0.500000  0.907490  1
  O  O66  1  0.818344  0.334764  0.933136  1
  O  O67  1  0.818344  0.665236  0.933136  1
  O  O68  1  0.797751  0.000000  0.933879  1
