# generated using pymatgen
data_CsVH12(C2O7)2
_symmetry_space_group_name_H-M   'P 1'
_cell_length_a   5.94896991
_cell_length_b   5.94896991
_cell_length_c   10.33234330
_cell_angle_alpha   81.50212400
_cell_angle_beta   98.49787600
_cell_angle_gamma   101.96530892
_symmetry_Int_Tables_number   1
_chemical_formula_structural   CsVH12(C2O7)2
_chemical_formula_sum   'Cs1 V1 H12 C4 O14'
_cell_volume   351.18980062
_cell_formula_units_Z   1
loop_
 _symmetry_equiv_pos_site_id
 _symmetry_equiv_pos_as_xyz
  1  'x, y, z'
loop_
 _atom_site_type_symbol
 _atom_site_label
 _atom_site_symmetry_multiplicity
 _atom_site_fract_x
 _atom_site_fract_y
 _atom_site_fract_z
 _atom_site_occupancy
  Cs  Cs0  1  0.004673  0.004673  0.500000  1
  V  V1  1  0.500385  0.500385  0.000000  1
  H  H2  1  0.290453  0.708260  0.146355  1
  H  H3  1  0.708260  0.290453  0.853645  1
  H  H4  1  0.206730  0.793992  0.982135  1
  H  H5  1  0.793992  0.206730  0.017865  1
  H  H6  1  0.160675  0.624533  0.332848  1
  H  H7  1  0.375628  0.838134  0.331861  1
  H  H8  1  0.838134  0.375628  0.668139  1
  H  H9  1  0.624533  0.160675  0.667152  1
  H  H10  1  0.904335  0.885291  0.848139  1
  H  H11  1  0.119141  0.097656  0.848397  1
  H  H12  1  0.097656  0.119141  0.151603  1
  H  H13  1  0.885291  0.904335  0.151861  1
  C  C14  1  0.262205  0.531445  0.736369  1
  C  C15  1  0.470745  0.737718  0.736111  1
  C  C16  1  0.737718  0.470745  0.263889  1
  C  C17  1  0.531445  0.262205  0.263631  1
  O  O18  1  0.302666  0.699320  0.048896  1
  O  O19  1  0.699320  0.302666  0.951104  1
  O  O20  1  0.252090  0.398328  0.847813  1
  O  O21  1  0.604372  0.746939  0.847489  1
  O  O22  1  0.746939  0.604372  0.152511  1
  O  O23  1  0.398328  0.252090  0.152187  1
  O  O24  1  0.120919  0.505998  0.635854  1
  O  O25  1  0.497220  0.878231  0.635467  1
  O  O26  1  0.878231  0.497220  0.364533  1
  O  O27  1  0.505998  0.120919  0.364146  1
  O  O28  1  0.311888  0.686535  0.298514  1
  O  O29  1  0.686535  0.311888  0.701486  1
  O  O30  1  0.074884  0.927414  0.850149  1
  O  O31  1  0.927414  0.074884  0.149851  1
