# generated using pymatgen
data_Mn2OF3
_symmetry_space_group_name_H-M   'P 1'
_cell_length_a   6.20124597
_cell_length_b   6.20124597
_cell_length_c   4.86193377
_cell_angle_alpha   90.00000000
_cell_angle_beta   90.00000000
_cell_angle_gamma   120.00000000
_symmetry_Int_Tables_number   1
_chemical_formula_structural   Mn2OF3
_chemical_formula_sum   'Mn4 O2 F6'
_cell_volume   161.91891544
_cell_formula_units_Z   2
loop_
 _symmetry_equiv_pos_site_id
 _symmetry_equiv_pos_as_xyz
  1  'x, y, z'
loop_
 _atom_site_type_symbol
 _atom_site_label
 _atom_site_symmetry_multiplicity
 _atom_site_fract_x
 _atom_site_fract_y
 _atom_site_fract_z
 _atom_site_occupancy
  Mn  Mn0  1  0.000000  0.500000  0.500000  1
  Mn  Mn1  1  0.500000  0.000000  0.500000  1
  Mn  Mn2  1  0.500000  0.500000  0.500000  1
  Mn  Mn3  1  0.000000  0.000000  0.000000  1
  O  O4  1  0.333333  0.666667  0.344948  1
  O  O5  1  0.666667  0.333333  0.655052  1
  F  F6  1  0.674561  0.837281  0.742096  1
  F  F7  1  0.162719  0.325439  0.742096  1
  F  F8  1  0.162719  0.837281  0.742096  1
  F  F9  1  0.837281  0.162719  0.257904  1
  F  F10  1  0.837281  0.674561  0.257904  1
  F  F11  1  0.325439  0.162719  0.257904  1
