# generated using pymatgen
data_CoAgO3
_symmetry_space_group_name_H-M   'P 1'
_cell_length_a   5.94928220
_cell_length_b   5.94928220
_cell_length_c   5.94928220
_cell_angle_alpha   49.67053753
_cell_angle_beta   49.67053753
_cell_angle_gamma   49.67053753
_symmetry_Int_Tables_number   1
_chemical_formula_structural   CoAgO3
_chemical_formula_sum   'Co2 Ag2 O6'
_cell_volume   112.53192237
_cell_formula_units_Z   2
loop_
 _symmetry_equiv_pos_site_id
 _symmetry_equiv_pos_as_xyz
  1  'x, y, z'
loop_
 _atom_site_type_symbol
 _atom_site_label
 _atom_site_symmetry_multiplicity
 _atom_site_fract_x
 _atom_site_fract_y
 _atom_site_fract_z
 _atom_site_occupancy
  Co  Co0  1  0.836977  0.836977  0.836977  1
  Co  Co1  1  0.163023  0.163023  0.163023  1
  Ag  Ag2  1  0.637488  0.637488  0.637488  1
  Ag  Ag3  1  0.362512  0.362512  0.362512  1
  O  O4  1  0.182359  0.559037  0.959177  1
  O  O5  1  0.040823  0.817641  0.440963  1
  O  O6  1  0.440963  0.040823  0.817641  1
  O  O7  1  0.559037  0.959177  0.182359  1
  O  O8  1  0.959177  0.182359  0.559037  1
  O  O9  1  0.817641  0.440963  0.040823  1
