# generated using pymatgen
data_Cr3Co5O16
_symmetry_space_group_name_H-M   'P 1'
_cell_length_a   5.73111553
_cell_length_b   5.73111553
_cell_length_c   8.61089593
_cell_angle_alpha   89.99904423
_cell_angle_beta   90.00095577
_cell_angle_gamma   119.65630131
_symmetry_Int_Tables_number   1
_chemical_formula_structural   Cr3Co5O16
_chemical_formula_sum   'Cr3 Co5 O16'
_cell_volume   245.78253091
_cell_formula_units_Z   1
loop_
 _symmetry_equiv_pos_site_id
 _symmetry_equiv_pos_as_xyz
  1  'x, y, z'
loop_
 _atom_site_type_symbol
 _atom_site_label
 _atom_site_symmetry_multiplicity
 _atom_site_fract_x
 _atom_site_fract_y
 _atom_site_fract_z
 _atom_site_occupancy
  Cr  Cr0  1  0.672280  0.831548  0.202330  1
  Cr  Cr1  1  0.168452  0.327720  0.202330  1
  Cr  Cr2  1  0.838498  0.161502  0.700771  1
  Co  Co3  1  0.329265  0.670735  0.487075  1
  Co  Co4  1  0.173067  0.826933  0.213334  1
  Co  Co5  1  0.664769  0.335231  0.981635  1
  Co  Co6  1  0.831433  0.660154  0.708042  1
  Co  Co7  1  0.339846  0.168567  0.708042  1
  O  O8  1  0.662248  0.832647  0.605287  1
  O  O9  1  0.471468  0.528532  0.343711  1
  O  O10  1  0.327659  0.672341  0.094516  1
  O  O11  1  0.008799  0.991201  0.317391  1
  O  O12  1  0.008652  0.991348  0.816226  1
  O  O13  1  0.167353  0.337752  0.605287  1
  O  O14  1  0.473380  0.955635  0.344640  1
  O  O15  1  0.044365  0.526620  0.344640  1
  O  O16  1  0.824891  0.175109  0.108747  1
  O  O17  1  0.168290  0.831710  0.603245  1
  O  O18  1  0.951960  0.478271  0.841462  1
  O  O19  1  0.521729  0.048040  0.841462  1
  O  O20  1  0.660457  0.339543  0.597970  1
  O  O21  1  0.827937  0.659742  0.102287  1
  O  O22  1  0.521117  0.478883  0.838767  1
  O  O23  1  0.340258  0.172063  0.102287  1
