# generated using pymatgen
data_Li2MnOF3
_symmetry_space_group_name_H-M   'P 1'
_cell_length_a   5.93873316
_cell_length_b   5.93873316
_cell_length_c   5.96673026
_cell_angle_alpha   60.91201615
_cell_angle_beta   119.08798385
_cell_angle_gamma   118.91934058
_symmetry_Int_Tables_number   1
_chemical_formula_structural   Li2MnOF3
_chemical_formula_sum   'Li4 Mn2 O2 F6'
_cell_volume   152.04719863
_cell_formula_units_Z   2
loop_
 _symmetry_equiv_pos_site_id
 _symmetry_equiv_pos_as_xyz
  1  'x, y, z'
loop_
 _atom_site_type_symbol
 _atom_site_label
 _atom_site_symmetry_multiplicity
 _atom_site_fract_x
 _atom_site_fract_y
 _atom_site_fract_z
 _atom_site_occupancy
  Li  Li0  1  0.123714  0.876286  0.906028  1
  Li  Li1  1  0.876286  0.123714  0.093972  1
  Li  Li2  1  0.500000  0.500000  0.000000  1
  Li  Li3  1  0.500000  0.500000  0.500000  1
  Mn  Mn4  1  0.500000  1.000000  0.500000  1
  Mn  Mn5  1  0.000000  0.500000  0.500000  1
  O  O6  1  0.746066  0.253934  0.688875  1
  O  O7  1  0.253934  0.746066  0.311125  1
  F  F8  1  0.752544  0.723424  0.260973  1
  F  F9  1  0.276576  0.247456  0.260973  1
  F  F10  1  0.741047  0.258953  0.225285  1
  F  F11  1  0.258953  0.741047  0.774715  1
  F  F12  1  0.723424  0.752544  0.739027  1
  F  F13  1  0.247456  0.276576  0.739027  1
