# generated using pymatgen
data_LiVOF3
_symmetry_space_group_name_H-M   'P 1'
_cell_length_a   4.69548448
_cell_length_b   5.45006267
_cell_length_c   5.67475794
_cell_angle_alpha   113.37433041
_cell_angle_beta   88.96350155
_cell_angle_gamma   93.30029090
_symmetry_Int_Tables_number   1
_chemical_formula_structural   LiVOF3
_chemical_formula_sum   'Li2 V2 O2 F6'
_cell_volume   133.08014849
_cell_formula_units_Z   2
loop_
 _symmetry_equiv_pos_site_id
 _symmetry_equiv_pos_as_xyz
  1  'x, y, z'
loop_
 _atom_site_type_symbol
 _atom_site_label
 _atom_site_symmetry_multiplicity
 _atom_site_fract_x
 _atom_site_fract_y
 _atom_site_fract_z
 _atom_site_occupancy
  Li  Li0  1  0.000000  0.500000  0.500000  1
  Li  Li1  1  0.500000  0.000000  0.500000  1
  V  V2  1  0.500000  0.500000  0.000000  1
  V  V3  1  0.000000  0.000000  0.000000  1
  O  O4  1  0.219305  0.314949  0.106392  1
  O  O5  1  0.780695  0.685051  0.893608  1
  F  F6  1  0.284996  0.834090  0.142566  1
  F  F7  1  0.675361  0.635904  0.333326  1
  F  F8  1  0.814012  0.138074  0.328594  1
  F  F9  1  0.185988  0.861926  0.671406  1
  F  F10  1  0.324639  0.364096  0.666674  1
  F  F11  1  0.715004  0.165910  0.857434  1
