# generated using pymatgen
data_LiMnP2HO7
_symmetry_space_group_name_H-M   'P 1'
_cell_length_a   5.23237907
_cell_length_b   12.91549867
_cell_length_c   8.98202708
_cell_angle_alpha   90.00000000
_cell_angle_beta   115.49170975
_cell_angle_gamma   90.00000000
_symmetry_Int_Tables_number   1
_chemical_formula_structural   LiMnP2HO7
_chemical_formula_sum   'Li4 Mn4 P8 H4 O28'
_cell_volume   547.90208706
_cell_formula_units_Z   4
loop_
 _symmetry_equiv_pos_site_id
 _symmetry_equiv_pos_as_xyz
  1  'x, y, z'
loop_
 _atom_site_type_symbol
 _atom_site_label
 _atom_site_symmetry_multiplicity
 _atom_site_fract_x
 _atom_site_fract_y
 _atom_site_fract_z
 _atom_site_occupancy
  Li  Li0  1  0.312975  0.014521  0.623045  1
  Li  Li1  1  0.687025  0.514521  0.876955  1
  Li  Li2  1  0.312975  0.485479  0.123045  1
  Li  Li3  1  0.687025  0.985479  0.376955  1
  Mn  Mn4  1  0.621139  0.374103  0.513717  1
  Mn  Mn5  1  0.378861  0.874103  0.986283  1
  Mn  Mn6  1  0.621139  0.125897  0.013717  1
  Mn  Mn7  1  0.378861  0.625897  0.486283  1
  P  P8  1  0.907080  0.044270  0.749315  1
  P  P9  1  0.092920  0.544270  0.750685  1
  P  P10  1  0.303120  0.331858  0.772232  1
  P  P11  1  0.696880  0.831858  0.727768  1
  P  P12  1  0.303120  0.168142  0.272232  1
  P  P13  1  0.696880  0.668142  0.227768  1
  P  P14  1  0.907080  0.455730  0.249315  1
  P  P15  1  0.092920  0.955730  0.250685  1
  H  H16  1  0.987028  0.181001  0.611979  1
  H  H17  1  0.012972  0.681001  0.888021  1
  H  H18  1  0.987028  0.318999  0.111979  1
  H  H19  1  0.012972  0.818999  0.388021  1
  O  O20  1  0.813232  0.526210  0.600520  1
  O  O21  1  0.966908  0.098947  0.608134  1
  O  O22  1  0.032781  0.295020  0.623747  1
  O  O23  1  0.798732  0.935300  0.650631  1
  O  O24  1  0.599705  0.757592  0.585398  1
  O  O25  1  0.335730  0.592230  0.726412  1
  O  O26  1  0.533377  0.377956  0.730726  1
  O  O27  1  0.466623  0.877956  0.769274  1
  O  O28  1  0.201268  0.435300  0.849369  1
  O  O29  1  0.967219  0.795020  0.876253  1
  O  O30  1  0.664270  0.092230  0.773588  1
  O  O31  1  0.033092  0.598947  0.891866  1
  O  O32  1  0.186768  0.026210  0.899480  1
  O  O33  1  0.400295  0.257592  0.914602  1
  O  O34  1  0.599705  0.742408  0.085398  1
  O  O35  1  0.813232  0.973790  0.100520  1
  O  O36  1  0.966908  0.401053  0.108134  1
  O  O37  1  0.335730  0.907770  0.226412  1
  O  O38  1  0.032781  0.204980  0.123747  1
  O  O39  1  0.798732  0.564700  0.150631  1
  O  O40  1  0.533377  0.122044  0.230726  1
  O  O41  1  0.466623  0.622044  0.269274  1
  O  O42  1  0.664270  0.407770  0.273588  1
  O  O43  1  0.400295  0.242408  0.414602  1
  O  O44  1  0.201268  0.064700  0.349369  1
  O  O45  1  0.967219  0.704980  0.376253  1
  O  O46  1  0.033092  0.901053  0.391866  1
  O  O47  1  0.186768  0.473790  0.399480  1
