# generated using pymatgen
data_LiFe2(BO3)2
_symmetry_space_group_name_H-M   'P 1'
_cell_length_a   5.25296375
_cell_length_b   9.16179023
_cell_length_c   11.36810530
_cell_angle_alpha   112.57722835
_cell_angle_beta   103.12564872
_cell_angle_gamma   89.45420513
_symmetry_Int_Tables_number   1
_chemical_formula_structural   LiFe2(BO3)2
_chemical_formula_sum   'Li4 Fe8 B8 O24'
_cell_volume   490.14275387
_cell_formula_units_Z   4
loop_
 _symmetry_equiv_pos_site_id
 _symmetry_equiv_pos_as_xyz
  1  'x, y, z'
loop_
 _atom_site_type_symbol
 _atom_site_label
 _atom_site_symmetry_multiplicity
 _atom_site_fract_x
 _atom_site_fract_y
 _atom_site_fract_z
 _atom_site_occupancy
  Li  Li0  1  0.026014  0.031858  0.405065  1
  Li  Li1  1  0.287886  0.278571  0.903919  1
  Li  Li2  1  0.494253  0.511360  0.662305  1
  Li  Li3  1  0.262900  0.249185  0.162572  1
  Fe  Fe4  1  0.019102  0.356819  0.381250  1
  Fe  Fe5  1  0.246929  0.932276  0.877183  1
  Fe  Fe6  1  0.493642  0.146001  0.629460  1
  Fe  Fe7  1  0.237014  0.574737  0.133721  1
  Fe  Fe8  1  0.769527  0.445745  0.884181  1
  Fe  Fe9  1  0.533013  0.841315  0.379201  1
  Fe  Fe10  1  0.977979  0.658003  0.628519  1
  Fe  Fe11  1  0.733967  0.059422  0.125856  1
  B  B12  1  0.028876  0.692128  0.379311  1
  B  B13  1  0.260818  0.597366  0.869941  1
  B  B14  1  0.473550  0.813408  0.630680  1
  B  B15  1  0.236419  0.901902  0.133262  1
  B  B16  1  0.516439  0.177342  0.373491  1
  B  B17  1  0.767259  0.112593  0.882865  1
  B  B18  1  0.984984  0.318653  0.624812  1
  B  B19  1  0.733989  0.389784  0.125160  1
  O  O20  1  0.030605  0.118634  0.890258  1
  O  O21  1  0.098831  0.699715  0.829801  1
  O  O22  1  0.166370  0.505219  0.929598  1
  O  O23  1  0.133186  0.192988  0.620979  1
  O  O24  1  0.079674  0.437932  0.593203  1
  O  O25  1  0.241748  0.828151  0.671807  1
  O  O26  1  0.245340  0.654417  0.322713  1
  O  O27  1  0.502488  0.577557  0.845306  1
  O  O28  1  0.603816  0.208009  0.828785  1
  O  O29  1  0.431872  0.078341  0.429116  1
  O  O30  1  0.365404  0.290057  0.351552  1
  O  O31  1  0.646238  0.022433  0.932437  1
  O  O32  1  0.359659  0.005915  0.094702  1
  O  O33  1  0.618171  0.686824  0.628523  1
  O  O34  1  0.554241  0.925026  0.588584  1
  O  O35  1  0.374819  0.785134  0.162317  1
  O  O36  1  0.464928  0.394340  0.114280  1
  O  O37  1  0.741812  0.328666  0.656905  1
  O  O38  1  0.757049  0.152854  0.336836  1
  O  O39  1  0.949839  0.591445  0.432816  1
  O  O40  1  0.908117  0.825906  0.384646  1
  O  O41  1  0.870135  0.486771  0.088269  1
  O  O42  1  0.871907  0.279593  0.167031  1
  O  O43  1  0.984861  0.921276  0.145262  1
