# generated using pymatgen
data_Li10Mn2V3Cr3O16
_symmetry_space_group_name_H-M   'P 1'
_cell_length_a   6.00516481
_cell_length_b   6.04933472
_cell_length_c   9.98708309
_cell_angle_alpha   90.39570007
_cell_angle_beta   90.20802205
_cell_angle_gamma   119.55722653
_symmetry_Int_Tables_number   1
_chemical_formula_structural   Li10Mn2V3Cr3O16
_chemical_formula_sum   'Li10 Mn2 V3 Cr3 O16'
_cell_volume   315.57145524
_cell_formula_units_Z   1
loop_
 _symmetry_equiv_pos_site_id
 _symmetry_equiv_pos_as_xyz
  1  'x, y, z'
loop_
 _atom_site_type_symbol
 _atom_site_label
 _atom_site_symmetry_multiplicity
 _atom_site_fract_x
 _atom_site_fract_y
 _atom_site_fract_z
 _atom_site_occupancy
  Li  Li0  1  0.985194  0.973352  0.514356  1
  Li  Li1  1  0.977401  0.985080  0.014551  1
  Li  Li2  1  0.649809  0.319245  0.225190  1
  Li  Li3  1  0.803726  0.189784  0.436401  1
  Li  Li4  1  0.786430  0.587676  0.440445  1
  Li  Li5  1  0.378280  0.191139  0.436836  1
  Li  Li6  1  0.319247  0.647014  0.724572  1
  Li  Li7  1  0.581826  0.780495  0.943078  1
  Li  Li8  1  0.182887  0.797388  0.937204  1
  Li  Li9  1  0.187492  0.375593  0.936247  1
  Mn  Mn10  1  0.655853  0.323495  0.976039  1
  Mn  Mn11  1  0.322530  0.658799  0.474309  1
  V  V12  1  0.820185  0.150063  0.713759  1
  V  V13  1  0.325767  0.151182  0.712352  1
  V  V14  1  0.152798  0.325421  0.213194  1
  Cr  Cr15  1  0.820693  0.647741  0.714588  1
  Cr  Cr16  1  0.648824  0.821663  0.214678  1
  Cr  Cr17  1  0.151645  0.821889  0.213509  1
  O  O18  1  0.823901  0.672128  0.099113  1
  O  O19  1  0.976771  0.475882  0.828276  1
  O  O20  1  0.823682  0.146814  0.102267  1
  O  O21  1  0.652379  0.322829  0.595750  1
  O  O22  1  0.497140  0.482916  0.829600  1
  O  O23  1  0.297640  0.146198  0.099025  1
  O  O24  1  0.496975  0.997567  0.828772  1
  O  O25  1  0.670328  0.823967  0.601102  1
  O  O26  1  0.479351  0.978112  0.329836  1
  O  O27  1  0.480257  0.496206  0.327053  1
  O  O28  1  0.320952  0.663267  0.097128  1
  O  O29  1  0.142468  0.814670  0.600528  1
  O  O30  1  0.999079  0.497473  0.326813  1
  O  O31  1  0.141097  0.293438  0.596074  1
  O  O32  1  0.982056  0.983331  0.327288  1
  O  O33  1  0.994855  0.980310  0.827495  1
