# generated using pymatgen
data_Na3LiCuPCO7
_symmetry_space_group_name_H-M   'P 1'
_cell_length_a   5.15926443
_cell_length_b   6.43569339
_cell_length_c   9.87895257
_cell_angle_alpha   90.00000000
_cell_angle_beta   90.44226899
_cell_angle_gamma   90.00000000
_symmetry_Int_Tables_number   1
_chemical_formula_structural   Na3LiCuPCO7
_chemical_formula_sum   'Na6 Li2 Cu2 P2 C2 O14'
_cell_volume   328.00547613
_cell_formula_units_Z   2
loop_
 _symmetry_equiv_pos_site_id
 _symmetry_equiv_pos_as_xyz
  1  'x, y, z'
loop_
 _atom_site_type_symbol
 _atom_site_label
 _atom_site_symmetry_multiplicity
 _atom_site_fract_x
 _atom_site_fract_y
 _atom_site_fract_z
 _atom_site_occupancy
  Na  Na0  1  0.228778  0.750000  0.088766  1
  Na  Na1  1  0.756529  0.016666  0.240034  1
  Na  Na2  1  0.756529  0.483334  0.240034  1
  Na  Na3  1  0.243471  0.516666  0.759966  1
  Na  Na4  1  0.243471  0.983334  0.759966  1
  Na  Na5  1  0.771222  0.250000  0.911234  1
  Li  Li6  1  0.000000  0.000000  0.500000  1
  Li  Li7  1  0.000000  0.500000  0.500000  1
  Cu  Cu8  1  0.280014  0.250000  0.334674  1
  Cu  Cu9  1  0.719986  0.750000  0.665326  1
  P  P10  1  0.343641  0.750000  0.407835  1
  P  P11  1  0.656359  0.250000  0.592165  1
  C  C12  1  0.267902  0.250000  0.046361  1
  C  C13  1  0.732098  0.750000  0.953639  1
  O  O14  1  0.733580  0.750000  0.086204  1
  O  O15  1  0.489549  0.250000  0.110838  1
  O  O16  1  0.049474  0.250000  0.110858  1
  O  O17  1  0.229244  0.944013  0.330526  1
  O  O18  1  0.229244  0.555987  0.330526  1
  O  O19  1  0.778294  0.250000  0.446826  1
  O  O20  1  0.642177  0.750000  0.407556  1
  O  O21  1  0.357823  0.250000  0.592444  1
  O  O22  1  0.221706  0.750000  0.553174  1
  O  O23  1  0.770756  0.055987  0.669474  1
  O  O24  1  0.770756  0.444013  0.669474  1
  O  O25  1  0.950526  0.750000  0.889142  1
  O  O26  1  0.510451  0.750000  0.889162  1
  O  O27  1  0.266420  0.250000  0.913796  1
