# generated using pymatgen
data_K2Co2(MoO4)3
_symmetry_space_group_name_H-M   'P 1'
_cell_length_a   7.10596861
_cell_length_b   9.16318523
_cell_length_c   20.30951688
_cell_angle_alpha   90.00000000
_cell_angle_beta   108.32386359
_cell_angle_gamma   90.00000000
_symmetry_Int_Tables_number   1
_chemical_formula_structural   K2Co2(MoO4)3
_chemical_formula_sum   'K8 Co8 Mo12 O48'
_cell_volume   1255.36599777
_cell_formula_units_Z   4
loop_
 _symmetry_equiv_pos_site_id
 _symmetry_equiv_pos_as_xyz
  1  'x, y, z'
loop_
 _atom_site_type_symbol
 _atom_site_label
 _atom_site_symmetry_multiplicity
 _atom_site_fract_x
 _atom_site_fract_y
 _atom_site_fract_z
 _atom_site_occupancy
  K  K0  1  0.989434  0.978380  0.724270  1
  K  K1  1  0.010566  0.021620  0.275730  1
  K  K2  1  0.689415  0.456185  0.907718  1
  K  K3  1  0.989434  0.521620  0.224270  1
  K  K4  1  0.310585  0.956185  0.592282  1
  K  K5  1  0.310585  0.543815  0.092282  1
  K  K6  1  0.689415  0.043815  0.407718  1
  K  K7  1  0.010566  0.478380  0.775730  1
  Co  Co8  1  0.224055  0.347249  0.635381  1
  Co  Co9  1  0.574091  0.424600  0.440289  1
  Co  Co10  1  0.574091  0.075400  0.940289  1
  Co  Co11  1  0.425909  0.924600  0.059711  1
  Co  Co12  1  0.224055  0.152751  0.135381  1
  Co  Co13  1  0.775945  0.847249  0.864619  1
  Co  Co14  1  0.425909  0.575400  0.559711  1
  Co  Co15  1  0.775945  0.652751  0.364619  1
  Mo  Mo16  1  0.549399  0.342784  0.271093  1
  Mo  Mo17  1  0.085556  0.163090  0.960398  1
  Mo  Mo18  1  0.085556  0.336910  0.460398  1
  Mo  Mo19  1  0.695620  0.232093  0.098042  1
  Mo  Mo20  1  0.450601  0.842784  0.228907  1
  Mo  Mo21  1  0.450601  0.657216  0.728907  1
  Mo  Mo22  1  0.914444  0.836910  0.039602  1
  Mo  Mo23  1  0.549399  0.157216  0.771093  1
  Mo  Mo24  1  0.304380  0.767907  0.901958  1
  Mo  Mo25  1  0.304380  0.732093  0.401958  1
  Mo  Mo26  1  0.914444  0.663090  0.539602  1
  Mo  Mo27  1  0.695620  0.267907  0.598042  1
  O  O28  1  0.124508  0.236771  0.540071  1
  O  O29  1  0.691316  0.939820  0.038015  1
  O  O30  1  0.662117  0.249810  0.506287  1
  O  O31  1  0.504619  0.620199  0.388164  1
  O  O32  1  0.337883  0.750190  0.493713  1
  O  O33  1  0.330922  0.589761  0.873735  1
  O  O34  1  0.504619  0.879801  0.888164  1
  O  O35  1  0.662117  0.250190  0.006287  1
  O  O36  1  0.956238  0.701009  0.102883  1
  O  O37  1  0.864087  0.456777  0.434840  1
  O  O38  1  0.058108  0.831221  0.854509  1
  O  O39  1  0.505879  0.803637  0.149312  1
  O  O40  1  0.494121  0.303637  0.350688  1
  O  O41  1  0.322470  0.160242  0.696623  1
  O  O42  1  0.864087  0.043223  0.934840  1
  O  O43  1  0.308684  0.439820  0.461985  1
  O  O44  1  0.494121  0.196363  0.850688  1
  O  O45  1  0.956238  0.798991  0.602883  1
  O  O46  1  0.669078  0.089761  0.626265  1
  O  O47  1  0.124508  0.263229  0.040071  1
  O  O48  1  0.941892  0.331221  0.645491  1
  O  O49  1  0.284987  0.708909  0.239301  1
  O  O50  1  0.674378  0.982541  0.779547  1
  O  O51  1  0.284987  0.791091  0.739301  1
  O  O52  1  0.495381  0.120199  0.111836  1
  O  O53  1  0.677530  0.660242  0.803377  1
  O  O54  1  0.325622  0.017459  0.220453  1
  O  O55  1  0.505879  0.696363  0.649312  1
  O  O56  1  0.875492  0.763229  0.459929  1
  O  O57  1  0.674378  0.517459  0.279547  1
  O  O58  1  0.677530  0.839758  0.303377  1
  O  O59  1  0.875492  0.736771  0.959929  1
  O  O60  1  0.322470  0.339758  0.196623  1
  O  O61  1  0.058108  0.668779  0.354509  1
  O  O62  1  0.495381  0.379801  0.611836  1
  O  O63  1  0.941892  0.168779  0.145491  1
  O  O64  1  0.043762  0.298991  0.897117  1
  O  O65  1  0.715013  0.208909  0.260699  1
  O  O66  1  0.325622  0.482541  0.720453  1
  O  O67  1  0.330922  0.910239  0.373735  1
  O  O68  1  0.043762  0.201009  0.397117  1
  O  O69  1  0.308684  0.060180  0.961985  1
  O  O70  1  0.135913  0.543223  0.565160  1
  O  O71  1  0.135913  0.956777  0.065160  1
  O  O72  1  0.691316  0.560180  0.538015  1
  O  O73  1  0.337883  0.749810  0.993713  1
  O  O74  1  0.669078  0.410239  0.126265  1
  O  O75  1  0.715013  0.291091  0.760699  1
