# generated using pymatgen
data_Li24Ti5Cr7O36
_symmetry_space_group_name_H-M   'P 1'
_cell_length_a   5.07581497
_cell_length_b   9.80184088
_cell_length_c   13.35391030
_cell_angle_alpha   97.13600291
_cell_angle_beta   100.84012335
_cell_angle_gamma   95.07569918
_symmetry_Int_Tables_number   1
_chemical_formula_structural   Li24Ti5Cr7O36
_chemical_formula_sum   'Li24 Ti5 Cr7 O36'
_cell_volume   643.20081858
_cell_formula_units_Z   1
loop_
 _symmetry_equiv_pos_site_id
 _symmetry_equiv_pos_as_xyz
  1  'x, y, z'
loop_
 _atom_site_type_symbol
 _atom_site_label
 _atom_site_symmetry_multiplicity
 _atom_site_fract_x
 _atom_site_fract_y
 _atom_site_fract_z
 _atom_site_occupancy
  Li  Li0  1  0.167351  0.999957  0.833425  1
  Li  Li1  1  0.053209  0.000377  0.615368  1
  Li  Li2  1  0.998213  0.750864  0.249697  1
  Li  Li3  1  0.333833  0.750204  0.917050  1
  Li  Li4  1  0.045516  0.496533  0.110553  1
  Li  Li5  1  0.379752  0.500547  0.778052  1
  Li  Li6  1  0.170909  0.499402  0.333617  1
  Li  Li7  1  0.500602  0.500232  0.000197  1
  Li  Li8  1  0.284705  0.501003  0.554694  1
  Li  Li9  1  0.333903  0.250041  0.417740  1
  Li  Li10  1  0.506511  0.000119  0.498380  1
  Li  Li11  1  0.281103  0.000714  0.051679  1
  Li  Li12  1  0.612690  0.998023  0.718378  1
  Li  Li13  1  0.382936  0.999092  0.280181  1
  Li  Li14  1  0.719747  0.001325  0.948265  1
  Li  Li15  1  0.665867  0.749658  0.582866  1
  Li  Li16  1  0.709944  0.499844  0.445016  1
  Li  Li17  1  0.833207  0.499936  0.666665  1
  Li  Li18  1  0.623050  0.501895  0.222274  1
  Li  Li19  1  0.952883  0.499730  0.888737  1
  Li  Li20  1  0.665715  0.250192  0.082343  1
  Li  Li21  1  0.829701  0.999854  0.167680  1
  Li  Li22  1  0.999174  0.249789  0.749244  1
  Li  Li23  1  0.947400  0.999547  0.386284  1
  Ti  Ti24  1  0.107752  0.746733  0.472444  1
  Ti  Ti25  1  0.223974  0.250379  0.193267  1
  Ti  Ti26  1  0.556362  0.249756  0.860561  1
  Ti  Ti27  1  0.777860  0.750319  0.806821  1
  Ti  Ti28  1  0.778200  0.249816  0.307730  1
  Cr  Cr29  1  0.108192  0.249886  0.970171  1
  Cr  Cr30  1  0.225630  0.750309  0.694788  1
  Cr  Cr31  1  0.442437  0.249592  0.635353  1
  Cr  Cr32  1  0.444308  0.751436  0.135013  1
  Cr  Cr33  1  0.550909  0.750116  0.358758  1
  Cr  Cr34  1  0.892471  0.250459  0.531763  1
  Cr  Cr35  1  0.892235  0.750211  0.031375  1
  O  O36  1  0.000223  0.861981  0.931034  1
  O  O37  1  0.072538  0.635147  0.784816  1
  O  O38  1  0.001568  0.362197  0.431515  1
  O  O39  1  0.135744  0.361417  0.641664  1
  O  O40  1  0.259041  0.364598  0.882696  1
  O  O41  1  0.333767  0.862949  0.597640  1
  O  O42  1  0.069209  0.133756  0.284717  1
  O  O43  1  0.198480  0.138065  0.525784  1
  O  O44  1  0.404280  0.134469  0.951298  1
  O  O45  1  0.135156  0.861899  0.140773  1
  O  O46  1  0.271580  0.864728  0.381201  1
  O  O47  1  0.475079  0.862681  0.810534  1
  O  O48  1  0.333451  0.137850  0.735775  1
  O  O49  1  0.197415  0.637621  0.026795  1
  O  O50  1  0.399627  0.633708  0.451797  1
  O  O51  1  0.517896  0.637379  0.689960  1
  O  O52  1  0.338205  0.641086  0.238502  1
  O  O53  1  0.667758  0.636885  0.906187  1
  O  O54  1  0.335598  0.362364  0.093719  1
  O  O55  1  0.665039  0.362756  0.760345  1
  O  O56  1  0.476455  0.364001  0.310247  1
  O  O57  1  0.591550  0.363680  0.550463  1
  O  O58  1  0.810142  0.363436  0.976545  1
  O  O59  1  0.665715  0.861928  0.259302  1
  O  O60  1  0.522485  0.136379  0.190405  1
  O  O61  1  0.742703  0.135749  0.616646  1
  O  O62  1  0.861247  0.137622  0.857196  1
  O  O63  1  0.593090  0.864672  0.050475  1
  O  O64  1  0.808531  0.862523  0.475086  1
  O  O65  1  0.932103  0.865015  0.714834  1
  O  O66  1  0.667278  0.137970  0.406942  1
  O  O67  1  0.742250  0.636190  0.116284  1
  O  O68  1  0.851444  0.637877  0.355765  1
  O  O69  1  0.996621  0.636978  0.572297  1
  O  O70  1  0.931783  0.366523  0.215955  1
  O  O71  1  0.996696  0.138036  0.068385  1
