# generated using pymatgen
data_NaAgO2
_symmetry_space_group_name_H-M   'P 1'
_cell_length_a   3.64900355
_cell_length_b   3.64900355
_cell_length_c   6.34793850
_cell_angle_alpha   62.45091585
_cell_angle_beta   117.54908415
_cell_angle_gamma   130.63017450
_symmetry_Int_Tables_number   1
_chemical_formula_structural   NaAgO2
_chemical_formula_sum   'Na1 Ag1 O2'
_cell_volume   55.21541986
_cell_formula_units_Z   1
loop_
 _symmetry_equiv_pos_site_id
 _symmetry_equiv_pos_as_xyz
  1  'x, y, z'
loop_
 _atom_site_type_symbol
 _atom_site_label
 _atom_site_symmetry_multiplicity
 _atom_site_fract_x
 _atom_site_fract_y
 _atom_site_fract_z
 _atom_site_occupancy
  Na  Na0  1  1.000000  0.000000  0.500000  1
  Ag  Ag1  1  0.000000  0.000000  0.000000  1
  O  O2  1  0.427553  0.572447  0.755371  1
  O  O3  1  0.572447  0.427553  0.244629  1
