# generated using pymatgen
data_Na(BiO2)2
_symmetry_space_group_name_H-M   'P 1'
_cell_length_a   3.47124415
_cell_length_b   10.48591692
_cell_length_c   12.33622759
_cell_angle_alpha   90.00000000
_cell_angle_beta   90.00000000
_cell_angle_gamma   90.00000000
_symmetry_Int_Tables_number   1
_chemical_formula_structural   Na(BiO2)2
_chemical_formula_sum   'Na4 Bi8 O16'
_cell_volume   449.02854114
_cell_formula_units_Z   4
loop_
 _symmetry_equiv_pos_site_id
 _symmetry_equiv_pos_as_xyz
  1  'x, y, z'
loop_
 _atom_site_type_symbol
 _atom_site_label
 _atom_site_symmetry_multiplicity
 _atom_site_fract_x
 _atom_site_fract_y
 _atom_site_fract_z
 _atom_site_occupancy
  Na  Na0  1  0.250000  0.742447  0.147054  1
  Na  Na1  1  0.750000  0.757553  0.647054  1
  Na  Na2  1  0.250000  0.242447  0.352946  1
  Na  Na3  1  0.750000  0.257553  0.852946  1
  Bi  Bi4  1  0.250000  0.565967  0.384368  1
  Bi  Bi5  1  0.250000  0.584081  0.893691  1
  Bi  Bi6  1  0.750000  0.915919  0.393691  1
  Bi  Bi7  1  0.750000  0.934033  0.884368  1
  Bi  Bi8  1  0.250000  0.065967  0.115632  1
  Bi  Bi9  1  0.250000  0.084081  0.606309  1
  Bi  Bi10  1  0.750000  0.415919  0.106309  1
  Bi  Bi11  1  0.750000  0.434033  0.615632  1
  O  O12  1  0.750000  0.515544  0.788044  1
  O  O13  1  0.250000  0.580223  0.576669  1
  O  O14  1  0.750000  0.614506  0.021332  1
  O  O15  1  0.750000  0.713530  0.330781  1
  O  O16  1  0.250000  0.786470  0.830781  1
  O  O17  1  0.250000  0.885494  0.521332  1
  O  O18  1  0.750000  0.919777  0.076669  1
  O  O19  1  0.250000  0.984456  0.288044  1
  O  O20  1  0.750000  0.015544  0.711956  1
  O  O21  1  0.250000  0.080223  0.923331  1
  O  O22  1  0.750000  0.114506  0.478668  1
  O  O23  1  0.750000  0.213530  0.169219  1
  O  O24  1  0.250000  0.286470  0.669219  1
  O  O25  1  0.250000  0.385494  0.978668  1
  O  O26  1  0.750000  0.419777  0.423331  1
  O  O27  1  0.250000  0.484456  0.211956  1
