# generated using pymatgen
data_Li4Mn2Co3Sb3O16
_symmetry_space_group_name_H-M   'P 1'
_cell_length_a   6.05961981
_cell_length_b   6.10976182
_cell_length_c   9.76103822
_cell_angle_alpha   89.88298614
_cell_angle_beta   91.99200150
_cell_angle_gamma   119.39421192
_symmetry_Int_Tables_number   1
_chemical_formula_structural   Li4Mn2Co3Sb3O16
_chemical_formula_sum   'Li4 Mn2 Co3 Sb3 O16'
_cell_volume   314.62121400
_cell_formula_units_Z   1
loop_
 _symmetry_equiv_pos_site_id
 _symmetry_equiv_pos_as_xyz
  1  'x, y, z'
loop_
 _atom_site_type_symbol
 _atom_site_label
 _atom_site_symmetry_multiplicity
 _atom_site_fract_x
 _atom_site_fract_y
 _atom_site_fract_z
 _atom_site_occupancy
  Li  Li0  1  0.330486  0.656077  0.881839  1
  Li  Li1  1  0.964199  0.992022  0.987562  1
  Li  Li2  1  0.974539  0.990419  0.502624  1
  Li  Li3  1  0.656083  0.329833  0.401630  1
  Mn  Mn4  1  0.346312  0.678100  0.500604  1
  Mn  Mn5  1  0.689125  0.341817  0.980157  1
  Co  Co6  1  0.666532  0.839085  0.216256  1
  Co  Co7  1  0.831549  0.656267  0.709475  1
  Co  Co8  1  0.838494  0.171519  0.717853  1
  Sb  Sb9  1  0.175493  0.843377  0.213352  1
  Sb  Sb10  1  0.176132  0.349758  0.214260  1
  Sb  Sb11  1  0.338691  0.157351  0.714557  1
  O  O12  1  0.167574  0.839900  0.596382  1
  O  O13  1  0.039729  0.527597  0.337106  1
  O  O14  1  0.317332  0.664155  0.099354  1
  O  O15  1  0.021841  0.022188  0.317291  1
  O  O16  1  0.010017  0.995937  0.808679  1
  O  O17  1  0.162345  0.312060  0.604812  1
  O  O18  1  0.482958  0.978864  0.329783  1
  O  O19  1  0.480134  0.517912  0.336922  1
  O  O20  1  0.315757  0.167207  0.099670  1
  O  O21  1  0.665408  0.836229  0.604092  1
  O  O22  1  0.519083  0.460763  0.849765  1
  O  O23  1  0.512475  0.020851  0.839432  1
  O  O24  1  0.650959  0.315208  0.604668  1
  O  O25  1  0.854532  0.695373  0.102916  1
  O  O26  1  0.961185  0.456727  0.836435  1
  O  O27  1  0.851040  0.183704  0.100366  1
