# generated using pymatgen
data_LiMn3Al2(HO2)6
_symmetry_space_group_name_H-M   'P 1'
_cell_length_a   5.88321524
_cell_length_b   7.95033354
_cell_length_c   10.12917123
_cell_angle_alpha   97.21771161
_cell_angle_beta   106.72385957
_cell_angle_gamma   100.91639838
_symmetry_Int_Tables_number   1
_chemical_formula_structural   LiMn3Al2(HO2)6
_chemical_formula_sum   'Li2 Mn6 Al4 H12 O24'
_cell_volume   437.27650002
_cell_formula_units_Z   2
loop_
 _symmetry_equiv_pos_site_id
 _symmetry_equiv_pos_as_xyz
  1  'x, y, z'
loop_
 _atom_site_type_symbol
 _atom_site_label
 _atom_site_symmetry_multiplicity
 _atom_site_fract_x
 _atom_site_fract_y
 _atom_site_fract_z
 _atom_site_occupancy
  Li  Li0  1  0.657981  0.654503  0.500171  1
  Li  Li1  1  0.342019  0.345497  0.499829  1
  Mn  Mn2  1  0.670677  0.664574  0.006321  1
  Mn  Mn3  1  0.171075  0.664772  0.006487  1
  Mn  Mn4  1  0.828925  0.335228  0.993513  1
  Mn  Mn5  1  0.329323  0.335426  0.993679  1
  Mn  Mn6  1  0.000000  0.000000  0.000000  1
  Mn  Mn7  1  0.500000  0.000000  0.000000  1
  Al  Al8  1  0.168301  0.659941  0.498827  1
  Al  Al9  1  0.500000  0.000000  0.500000  1
  Al  Al10  1  0.831699  0.340059  0.501173  1
  Al  Al11  1  0.000000  0.000000  0.500000  1
  H  H12  1  0.104022  0.836355  0.288072  1
  H  H13  1  0.546546  0.830266  0.704314  1
  H  H14  1  0.608514  0.849123  0.295772  1
  H  H15  1  0.252812  0.517235  0.290874  1
  H  H16  1  0.070346  0.825716  0.699148  1
  H  H17  1  0.783425  0.500436  0.291498  1
  H  H18  1  0.216575  0.499564  0.708502  1
  H  H19  1  0.929654  0.174284  0.300852  1
  H  H20  1  0.391486  0.150877  0.704228  1
  H  H21  1  0.747188  0.482765  0.709126  1
  H  H22  1  0.453454  0.169734  0.295686  1
  H  H23  1  0.895978  0.163645  0.711928  1
  O  O24  1  0.162025  0.869179  0.393302  1
  O  O25  1  0.004064  0.780586  0.114360  1
  O  O26  1  0.486305  0.811506  0.601488  1
  O  O27  1  0.669334  0.854014  0.903393  1
  O  O28  1  0.503910  0.781549  0.112813  1
  O  O29  1  0.314894  0.546233  0.392860  1
  O  O30  1  0.670418  0.883827  0.399255  1
  O  O31  1  0.016818  0.808487  0.596507  1
  O  O32  1  0.169087  0.856181  0.904265  1
  O  O33  1  0.834971  0.535400  0.900166  1
  O  O34  1  0.665882  0.464245  0.101332  1
  O  O35  1  0.844589  0.520460  0.394447  1
  O  O36  1  0.155411  0.479540  0.605553  1
  O  O37  1  0.334118  0.535755  0.898668  1
  O  O38  1  0.165029  0.464600  0.099834  1
  O  O39  1  0.983182  0.191513  0.403493  1
  O  O40  1  0.830913  0.143819  0.095735  1
  O  O41  1  0.496090  0.218451  0.887187  1
  O  O42  1  0.685106  0.453767  0.607140  1
  O  O43  1  0.329582  0.116173  0.600745  1
  O  O44  1  0.330666  0.145986  0.096607  1
  O  O45  1  0.513695  0.188494  0.398512  1
  O  O46  1  0.837975  0.130821  0.606698  1
  O  O47  1  0.995936  0.219414  0.885640  1
