# generated using pymatgen
data_Mn5Co3O16
_symmetry_space_group_name_H-M   'P 1'
_cell_length_a   5.67521834
_cell_length_b   5.67521834
_cell_length_c   8.78202477
_cell_angle_alpha   89.30560317
_cell_angle_beta   90.69439683
_cell_angle_gamma   119.75388221
_symmetry_Int_Tables_number   1
_chemical_formula_structural   Mn5Co3O16
_chemical_formula_sum   'Mn5 Co3 O16'
_cell_volume   245.53846743
_cell_formula_units_Z   1
loop_
 _symmetry_equiv_pos_site_id
 _symmetry_equiv_pos_as_xyz
  1  'x, y, z'
loop_
 _atom_site_type_symbol
 _atom_site_label
 _atom_site_symmetry_multiplicity
 _atom_site_fract_x
 _atom_site_fract_y
 _atom_site_fract_z
 _atom_site_occupancy
  Mn  Mn0  1  0.332936  0.667064  0.515482  1
  Mn  Mn1  1  0.167850  0.832150  0.787174  1
  Mn  Mn2  1  0.666788  0.333212  0.013788  1
  Mn  Mn3  1  0.335127  0.167326  0.288093  1
  Mn  Mn4  1  0.832674  0.664873  0.288093  1
  Co  Co5  1  0.167883  0.334661  0.792399  1
  Co  Co6  1  0.665339  0.832117  0.792399  1
  Co  Co7  1  0.833126  0.166874  0.293476  1
  O  O8  1  0.159280  0.330301  0.396739  1
  O  O9  1  0.478274  0.521726  0.666862  1
  O  O10  1  0.335040  0.664960  0.899945  1
  O  O11  1  0.996664  0.003336  0.682717  1
  O  O12  1  0.997656  0.002344  0.180603  1
  O  O13  1  0.669699  0.840720  0.396739  1
  O  O14  1  0.039714  0.515043  0.660745  1
  O  O15  1  0.484957  0.960286  0.660745  1
  O  O16  1  0.835332  0.164668  0.892340  1
  O  O17  1  0.164912  0.835088  0.401875  1
  O  O18  1  0.526505  0.040553  0.161179  1
  O  O19  1  0.959447  0.473495  0.161179  1
  O  O20  1  0.666899  0.333101  0.400700  1
  O  O21  1  0.330171  0.170889  0.896985  1
  O  O22  1  0.518283  0.481717  0.156856  1
  O  O23  1  0.829111  0.669829  0.896985  1
