# generated using pymatgen
data_V4OF11
_symmetry_space_group_name_H-M   'P 1'
_cell_length_a   5.48605675
_cell_length_b   5.26380639
_cell_length_c   7.47618820
_cell_angle_alpha   90.00000000
_cell_angle_beta   93.31707965
_cell_angle_gamma   90.00000000
_symmetry_Int_Tables_number   1
_chemical_formula_structural   V4OF11
_chemical_formula_sum   'V4 O1 F11'
_cell_volume   215.53222223
_cell_formula_units_Z   1
loop_
 _symmetry_equiv_pos_site_id
 _symmetry_equiv_pos_as_xyz
  1  'x, y, z'
loop_
 _atom_site_type_symbol
 _atom_site_label
 _atom_site_symmetry_multiplicity
 _atom_site_fract_x
 _atom_site_fract_y
 _atom_site_fract_z
 _atom_site_occupancy
  V  V0  1  0.999926  0.493302  0.737498  1
  V  V1  1  0.000074  0.493302  0.262502  1
  V  V2  1  0.499972  0.999288  0.750567  1
  V  V3  1  0.500028  0.999288  0.249433  1
  O  O4  1  0.000000  0.427796  0.500000  1
  F  F5  1  0.500000  0.111511  0.500000  1
  F  F6  1  0.802829  0.196639  0.801944  1
  F  F7  1  0.197171  0.196639  0.198056  1
  F  F8  1  0.699850  0.300921  0.197631  1
  F  F9  1  0.300150  0.300921  0.802369  1
  F  F10  1  0.000000  0.587272  0.000000  1
  F  F11  1  0.698369  0.697262  0.700854  1
  F  F12  1  0.301631  0.697262  0.299146  1
  F  F13  1  0.803515  0.804901  0.297990  1
  F  F14  1  0.196485  0.804901  0.702010  1
  F  F15  1  0.500000  0.888796  0.000000  1
