# generated using pymatgen
data_ZnCoO3
_symmetry_space_group_name_H-M   'P 1'
_cell_length_a   6.42081523
_cell_length_b   6.42081523
_cell_length_c   5.09103013
_cell_angle_alpha   84.76825530
_cell_angle_beta   95.23174470
_cell_angle_gamma   96.12919245
_symmetry_Int_Tables_number   1
_chemical_formula_structural   ZnCoO3
_chemical_formula_sum   'Zn4 Co4 O12'
_cell_volume   207.11375241
_cell_formula_units_Z   4
loop_
 _symmetry_equiv_pos_site_id
 _symmetry_equiv_pos_as_xyz
  1  'x, y, z'
loop_
 _atom_site_type_symbol
 _atom_site_label
 _atom_site_symmetry_multiplicity
 _atom_site_fract_x
 _atom_site_fract_y
 _atom_site_fract_z
 _atom_site_occupancy
  Zn  Zn0  1  0.781012  0.411619  0.301198  1
  Zn  Zn1  1  0.588381  0.218988  0.801198  1
  Zn  Zn2  1  0.411619  0.781012  0.198802  1
  Zn  Zn3  1  0.218988  0.588381  0.698802  1
  Co  Co4  1  0.911429  0.911429  0.250000  1
  Co  Co5  1  0.745919  0.745919  0.750000  1
  Co  Co6  1  0.254081  0.254081  0.250000  1
  Co  Co7  1  0.088571  0.088571  0.750000  1
  O  O8  1  0.981057  0.183636  0.392464  1
  O  O9  1  0.870288  0.666856  0.091915  1
  O  O10  1  0.816364  0.018943  0.892464  1
  O  O11  1  0.734708  0.480222  0.652306  1
  O  O12  1  0.519778  0.265292  0.152306  1
  O  O13  1  0.666856  0.870288  0.408085  1
  O  O14  1  0.333144  0.129712  0.591915  1
  O  O15  1  0.480222  0.734708  0.847694  1
  O  O16  1  0.265292  0.519778  0.347694  1
  O  O17  1  0.183636  0.981057  0.107536  1
  O  O18  1  0.129712  0.333144  0.908085  1
  O  O19  1  0.018943  0.816364  0.607536  1
