# generated using pymatgen
data_Li2CuSiO4
_symmetry_space_group_name_H-M   'P 1'
_cell_length_a   5.04167018
_cell_length_b   5.04167018
_cell_length_c   11.42128475
_cell_angle_alpha   90.00000000
_cell_angle_beta   90.00000000
_cell_angle_gamma   120.00000000
_symmetry_Int_Tables_number   1
_chemical_formula_structural   Li2CuSiO4
_chemical_formula_sum   'Li6 Cu3 Si3 O12'
_cell_volume   251.41689221
_cell_formula_units_Z   3
loop_
 _symmetry_equiv_pos_site_id
 _symmetry_equiv_pos_as_xyz
  1  'x, y, z'
loop_
 _atom_site_type_symbol
 _atom_site_label
 _atom_site_symmetry_multiplicity
 _atom_site_fract_x
 _atom_site_fract_y
 _atom_site_fract_z
 _atom_site_occupancy
  Li  Li0  1  0.341141  0.896341  0.586082  1
  Li  Li1  1  0.103659  0.444800  0.919416  1
  Li  Li2  1  0.555200  0.658859  0.252749  1
  Li  Li3  1  0.444800  0.103659  0.080584  1
  Li  Li4  1  0.658859  0.555200  0.747251  1
  Li  Li5  1  0.896341  0.341141  0.413918  1
  Cu  Cu6  1  0.000000  0.449837  0.166667  1
  Cu  Cu7  1  0.550163  0.550163  0.500000  1
  Cu  Cu8  1  0.449837  0.000000  0.833333  1
  Si  Si9  1  0.000000  0.190396  0.666667  1
  Si  Si10  1  0.190396  0.000000  0.333333  1
  Si  Si11  1  0.809604  0.809604  0.000000  1
  O  O12  1  0.141104  0.853887  0.956611  1
  O  O13  1  0.134017  0.443140  0.559107  1
  O  O14  1  0.309124  0.865983  0.225774  1
  O  O15  1  0.146113  0.287217  0.289944  1
  O  O16  1  0.287217  0.146113  0.710056  1
  O  O17  1  0.712783  0.858896  0.623277  1
  O  O18  1  0.556860  0.690876  0.892440  1
  O  O19  1  0.690876  0.556860  0.107560  1
  O  O20  1  0.443140  0.134017  0.440893  1
  O  O21  1  0.858896  0.712783  0.376723  1
  O  O22  1  0.853887  0.141104  0.043389  1
  O  O23  1  0.865983  0.309124  0.774226  1
