# generated using pymatgen
data_Gd3As5O12
_symmetry_space_group_name_H-M   'P 1'
_cell_length_a   9.30466734
_cell_length_b   9.30466734
_cell_length_c   9.30466734
_cell_angle_alpha   109.47122063
_cell_angle_beta   109.47122063
_cell_angle_gamma   109.47122063
_symmetry_Int_Tables_number   1
_chemical_formula_structural   Gd3As5O12
_chemical_formula_sum   'Gd6 As10 O24'
_cell_volume   620.12702976
_cell_formula_units_Z   2
loop_
 _symmetry_equiv_pos_site_id
 _symmetry_equiv_pos_as_xyz
  1  'x, y, z'
loop_
 _atom_site_type_symbol
 _atom_site_label
 _atom_site_symmetry_multiplicity
 _atom_site_fract_x
 _atom_site_fract_y
 _atom_site_fract_z
 _atom_site_occupancy
  Gd  Gd0  1  0.250000  0.750000  0.500000  1
  Gd  Gd1  1  0.250000  0.500000  0.750000  1
  Gd  Gd2  1  0.500000  0.750000  0.250000  1
  Gd  Gd3  1  0.500000  0.250000  0.750000  1
  Gd  Gd4  1  0.750000  0.250000  0.500000  1
  Gd  Gd5  1  0.750000  0.500000  0.250000  1
  As  As6  1  0.000000  0.713115  0.713115  1
  As  As7  1  0.504464  1.000000  1.000000  1
  As  As8  1  0.286885  0.000000  0.286885  1
  As  As9  1  0.286885  0.286885  0.000000  1
  As  As10  1  0.495536  0.495536  0.495536  1
  As  As11  1  0.713115  0.713115  0.000000  1
  As  As12  1  0.713115  0.000000  0.713115  1
  As  As13  1  0.000000  0.000000  0.504464  1
  As  As14  1  0.000000  0.504464  0.000000  1
  As  As15  1  0.000000  0.286885  0.286885  1
  O  O16  1  0.186060  0.703725  0.703725  1
  O  O17  1  0.000000  0.296275  0.482335  1
  O  O18  1  0.000000  0.482335  0.296275  1
  O  O19  1  0.192726  0.717752  0.192726  1
  O  O20  1  0.192726  0.192726  0.717752  1
  O  O21  1  0.525026  1.000000  0.807274  1
  O  O22  1  0.525026  0.807274  1.000000  1
  O  O23  1  0.282248  0.474974  0.474974  1
  O  O24  1  0.517665  0.517665  0.813940  1
  O  O25  1  0.517665  0.813940  0.517665  1
  O  O26  1  0.296275  0.000000  0.482335  1
  O  O27  1  0.296275  0.482335  0.000000  1
  O  O28  1  0.474974  0.282248  0.474974  1
  O  O29  1  0.474974  0.474974  0.282248  1
  O  O30  1  0.807274  0.000000  0.525026  1
  O  O31  1  0.807274  0.525026  1.000000  1
  O  O32  1  0.703725  0.703725  0.186060  1
  O  O33  1  0.703725  0.186060  0.703725  1
  O  O34  1  0.482335  0.000000  0.296275  1
  O  O35  1  0.482335  0.296275  0.000000  1
  O  O36  1  0.813940  0.517665  0.517665  1
  O  O37  1  0.000000  0.525026  0.807274  1
  O  O38  1  0.000000  0.807274  0.525026  1
  O  O39  1  0.717752  0.192726  0.192726  1
