# generated using pymatgen
data_CaEuO2
_symmetry_space_group_name_H-M   'P 1'
_cell_length_a   6.10847055
_cell_length_b   6.10847055
_cell_length_c   6.10847055
_cell_angle_alpha   33.34458473
_cell_angle_beta   33.34458473
_cell_angle_gamma   33.34458473
_symmetry_Int_Tables_number   1
_chemical_formula_structural   CaEuO2
_chemical_formula_sum   'Ca1 Eu1 O2'
_cell_volume   61.31938131
_cell_formula_units_Z   1
loop_
 _symmetry_equiv_pos_site_id
 _symmetry_equiv_pos_as_xyz
  1  'x, y, z'
loop_
 _atom_site_type_symbol
 _atom_site_label
 _atom_site_symmetry_multiplicity
 _atom_site_fract_x
 _atom_site_fract_y
 _atom_site_fract_z
 _atom_site_occupancy
  Ca  Ca0  1  0.000000  0.000000  0.000000  1
  Eu  Eu1  1  0.500000  0.500000  0.500000  1
  O  O2  1  0.254129  0.254129  0.254129  1
  O  O3  1  0.745871  0.745871  0.745871  1
