# generated using pymatgen
data_ErBiO3
_symmetry_space_group_name_H-M   'P 1'
_cell_length_a   6.11544456
_cell_length_b   6.11544456
_cell_length_c   6.11544456
_cell_angle_alpha   58.60067237
_cell_angle_beta   58.60067237
_cell_angle_gamma   58.60067237
_symmetry_Int_Tables_number   1
_chemical_formula_structural   ErBiO3
_chemical_formula_sum   'Er2 Bi2 O6'
_cell_volume   156.54808107
_cell_formula_units_Z   2
loop_
 _symmetry_equiv_pos_site_id
 _symmetry_equiv_pos_as_xyz
  1  'x, y, z'
loop_
 _atom_site_type_symbol
 _atom_site_label
 _atom_site_symmetry_multiplicity
 _atom_site_fract_x
 _atom_site_fract_y
 _atom_site_fract_z
 _atom_site_occupancy
  Er  Er0  1  0.142335  0.142335  0.142335  1
  Er  Er1  1  0.857665  0.857665  0.857665  1
  Bi  Bi2  1  0.356967  0.356967  0.356967  1
  Bi  Bi3  1  0.643033  0.643033  0.643033  1
  O  O4  1  0.782705  0.011691  0.455350  1
  O  O5  1  0.011691  0.455350  0.782705  1
  O  O6  1  0.455350  0.782705  0.011691  1
  O  O7  1  0.544650  0.217295  0.988309  1
  O  O8  1  0.988309  0.544650  0.217295  1
  O  O9  1  0.217295  0.988309  0.544650  1
