# generated using pymatgen
data_LiTiFeO4
_symmetry_space_group_name_H-M   'P 1'
_cell_length_a   5.99014703
_cell_length_b   5.99014703
_cell_length_c   8.33597416
_cell_angle_alpha   90.00000000
_cell_angle_beta   90.00000000
_cell_angle_gamma   90.00000000
_symmetry_Int_Tables_number   1
_chemical_formula_structural   LiTiFeO4
_chemical_formula_sum   'Li4 Ti4 Fe4 O16'
_cell_volume   299.11026979
_cell_formula_units_Z   4
loop_
 _symmetry_equiv_pos_site_id
 _symmetry_equiv_pos_as_xyz
  1  'x, y, z'
loop_
 _atom_site_type_symbol
 _atom_site_label
 _atom_site_symmetry_multiplicity
 _atom_site_fract_x
 _atom_site_fract_y
 _atom_site_fract_z
 _atom_site_occupancy
  Li  Li0  1  0.000000  0.226968  0.000000  1
  Li  Li1  1  0.000000  0.773032  0.500000  1
  Li  Li2  1  0.226968  0.000000  0.250000  1
  Li  Li3  1  0.773032  0.000000  0.750000  1
  Ti  Ti4  1  0.220810  0.500000  0.250000  1
  Ti  Ti5  1  0.500000  0.220810  0.000000  1
  Ti  Ti6  1  0.500000  0.779190  0.500000  1
  Ti  Ti7  1  0.779190  0.500000  0.750000  1
  Fe  Fe8  1  0.258605  0.258605  0.625000  1
  Fe  Fe9  1  0.258605  0.741395  0.875000  1
  Fe  Fe10  1  0.741395  0.258605  0.375000  1
  Fe  Fe11  1  0.741395  0.741395  0.125000  1
  O  O12  1  0.013302  0.266125  0.256931  1
  O  O13  1  0.013302  0.733875  0.243069  1
  O  O14  1  0.266125  0.013302  0.993069  1
  O  O15  1  0.266125  0.986698  0.506931  1
  O  O16  1  0.264694  0.485121  0.014651  1
  O  O17  1  0.264694  0.514879  0.485349  1
  O  O18  1  0.485121  0.264694  0.235349  1
  O  O19  1  0.485121  0.735306  0.264651  1
  O  O20  1  0.514879  0.264694  0.764651  1
  O  O21  1  0.514879  0.735306  0.735349  1
  O  O22  1  0.735306  0.514879  0.514651  1
  O  O23  1  0.735306  0.485121  0.985349  1
  O  O24  1  0.733875  0.013302  0.006931  1
  O  O25  1  0.733875  0.986698  0.493069  1
  O  O26  1  0.986698  0.266125  0.743069  1
  O  O27  1  0.986698  0.733875  0.756931  1
