# generated using pymatgen
data_Li4Ti2Mn4Cr3O18
_symmetry_space_group_name_H-M   'P 1'
_cell_length_a   2.92884816
_cell_length_b   9.02911695
_cell_length_c   25.23211323
_cell_angle_alpha   90.00000000
_cell_angle_beta   90.00000000
_cell_angle_gamma   90.00000000
_symmetry_Int_Tables_number   1
_chemical_formula_structural   Li4Ti2Mn4Cr3O18
_chemical_formula_sum   'Li8 Ti4 Mn8 Cr6 O36'
_cell_volume   667.26102867
_cell_formula_units_Z   2
loop_
 _symmetry_equiv_pos_site_id
 _symmetry_equiv_pos_as_xyz
  1  'x, y, z'
loop_
 _atom_site_type_symbol
 _atom_site_label
 _atom_site_symmetry_multiplicity
 _atom_site_fract_x
 _atom_site_fract_y
 _atom_site_fract_z
 _atom_site_occupancy
  Li  Li0  1  0.000000  0.180267  0.000641  1
  Li  Li1  1  0.000000  0.197651  0.202980  1
  Li  Li2  1  0.000000  0.302349  0.702980  1
  Li  Li3  1  0.000000  0.319733  0.500641  1
  Li  Li4  1  0.000000  0.680267  0.499359  1
  Li  Li5  1  0.000000  0.697651  0.297020  1
  Li  Li6  1  0.000000  0.802349  0.797020  1
  Li  Li7  1  0.000000  0.819733  0.999359  1
  Ti  Ti8  1  0.000000  0.000409  0.106767  1
  Ti  Ti9  1  0.000000  0.499591  0.606767  1
  Ti  Ti10  1  0.000000  0.500409  0.393233  1
  Ti  Ti11  1  0.000000  0.999591  0.893233  1
  Mn  Mn12  1  0.000000  0.021780  0.309959  1
  Mn  Mn13  1  0.500000  0.137972  0.587561  1
  Mn  Mn14  1  0.500000  0.362028  0.087561  1
  Mn  Mn15  1  0.000000  0.478220  0.809959  1
  Mn  Mn16  1  0.000000  0.521780  0.190041  1
  Mn  Mn17  1  0.500000  0.637972  0.912439  1
  Mn  Mn18  1  0.500000  0.862028  0.412439  1
  Mn  Mn19  1  0.000000  0.978220  0.690041  1
  Cr  Cr20  1  0.000000  0.000000  0.500000  1
  Cr  Cr21  1  0.500000  0.143611  0.804349  1
  Cr  Cr22  1  0.500000  0.356389  0.304349  1
  Cr  Cr23  1  0.000000  0.500000  0.000000  1
  Cr  Cr24  1  0.500000  0.643611  0.695651  1
  Cr  Cr25  1  0.500000  0.856389  0.195651  1
  O  O26  1  0.000000  0.000997  0.420910  1
  O  O27  1  0.000000  0.999003  0.579090  1
  O  O28  1  0.500000  0.034405  0.940925  1
  O  O29  1  0.500000  0.056427  0.161667  1
  O  O30  1  0.500000  0.103024  0.662306  1
  O  O31  1  0.000000  0.115912  0.755238  1
  O  O32  1  0.500000  0.151883  0.509708  1
  O  O33  1  0.500000  0.141719  0.283119  1
  O  O34  1  0.000000  0.181707  0.856836  1
  O  O35  1  0.000000  0.222067  0.088891  1
  O  O36  1  0.000000  0.277933  0.588891  1
  O  O37  1  0.000000  0.318293  0.356836  1
  O  O38  1  0.500000  0.358281  0.783119  1
  O  O39  1  0.500000  0.348117  0.009708  1
  O  O40  1  0.000000  0.384088  0.255238  1
  O  O41  1  0.500000  0.396976  0.162306  1
  O  O42  1  0.500000  0.443573  0.661667  1
  O  O43  1  0.500000  0.465595  0.440925  1
  O  O44  1  0.000000  0.500997  0.079090  1
  O  O45  1  0.000000  0.499003  0.920910  1
  O  O46  1  0.500000  0.534405  0.559075  1
  O  O47  1  0.500000  0.556427  0.338333  1
  O  O48  1  0.500000  0.603024  0.837694  1
  O  O49  1  0.000000  0.615912  0.744762  1
  O  O50  1  0.500000  0.651883  0.990292  1
  O  O51  1  0.500000  0.641719  0.216881  1
  O  O52  1  0.000000  0.681707  0.643164  1
  O  O53  1  0.000000  0.722067  0.411109  1
  O  O54  1  0.000000  0.777933  0.911109  1
  O  O55  1  0.000000  0.818293  0.143164  1
  O  O56  1  0.500000  0.858281  0.716881  1
  O  O57  1  0.500000  0.848117  0.490292  1
  O  O58  1  0.000000  0.884088  0.244762  1
  O  O59  1  0.500000  0.896976  0.337694  1
  O  O60  1  0.500000  0.943573  0.838333  1
  O  O61  1  0.500000  0.965595  0.059075  1
