# generated using pymatgen
data_NaTi2O3
_symmetry_space_group_name_H-M   'P 1'
_cell_length_a   3.05763026
_cell_length_b   3.05763026
_cell_length_c   7.80134154
_cell_angle_alpha   90.00000000
_cell_angle_beta   90.00000000
_cell_angle_gamma   120.00000000
_symmetry_Int_Tables_number   1
_chemical_formula_structural   NaTi2O3
_chemical_formula_sum   'Na1 Ti2 O3'
_cell_volume   63.16403384
_cell_formula_units_Z   1
loop_
 _symmetry_equiv_pos_site_id
 _symmetry_equiv_pos_as_xyz
  1  'x, y, z'
loop_
 _atom_site_type_symbol
 _atom_site_label
 _atom_site_symmetry_multiplicity
 _atom_site_fract_x
 _atom_site_fract_y
 _atom_site_fract_z
 _atom_site_occupancy
  Na  Na0  1  0.000000  0.000000  0.500000  1
  Ti  Ti1  1  0.333333  0.666667  0.148125  1
  Ti  Ti2  1  0.666667  0.333333  0.851875  1
  O  O3  1  0.333333  0.666667  0.705632  1
  O  O4  1  0.000000  0.000000  0.000000  1
  O  O5  1  0.666667  0.333333  0.294368  1
