# generated using pymatgen
data_Li4Cu3TeO8
_symmetry_space_group_name_H-M   'P 1'
_cell_length_a   5.97136371
_cell_length_b   5.97136371
_cell_length_c   5.97136371
_cell_angle_alpha   61.74958516
_cell_angle_beta   61.74958516
_cell_angle_gamma   61.74958516
_symmetry_Int_Tables_number   1
_chemical_formula_structural   Li4Cu3TeO8
_chemical_formula_sum   'Li4 Cu3 Te1 O8'
_cell_volume   156.46117442
_cell_formula_units_Z   1
loop_
 _symmetry_equiv_pos_site_id
 _symmetry_equiv_pos_as_xyz
  1  'x, y, z'
loop_
 _atom_site_type_symbol
 _atom_site_label
 _atom_site_symmetry_multiplicity
 _atom_site_fract_x
 _atom_site_fract_y
 _atom_site_fract_z
 _atom_site_occupancy
  Li  Li0  1  0.500000  0.500000  0.500000  1
  Li  Li1  1  0.000000  0.000000  0.500000  1
  Li  Li2  1  0.000000  0.500000  1.000000  1
  Li  Li3  1  0.500000  0.000000  1.000000  1
  Cu  Cu4  1  0.500000  0.500000  1.000000  1
  Cu  Cu5  1  0.500000  0.000000  0.500000  1
  Cu  Cu6  1  0.000000  0.500000  0.500000  1
  Te  Te7  1  0.000000  0.000000  0.000000  1
  O  O8  1  0.730021  0.730021  0.730021  1
  O  O9  1  0.230166  0.230166  0.783833  1
  O  O10  1  0.230166  0.783833  0.230166  1
  O  O11  1  0.269979  0.269979  0.269979  1
  O  O12  1  0.783833  0.230166  0.230166  1
  O  O13  1  0.769834  0.769834  0.216167  1
  O  O14  1  0.769834  0.216167  0.769834  1
  O  O15  1  0.216167  0.769834  0.769834  1
