# generated using pymatgen
data_Li3MnV(PO4)3
_symmetry_space_group_name_H-M   'P 1'
_cell_length_a   8.73991811
_cell_length_b   8.73991811
_cell_length_c   8.65260344
_cell_angle_alpha   60.81299867
_cell_angle_beta   119.18700133
_cell_angle_gamma   119.44159769
_symmetry_Int_Tables_number   1
_chemical_formula_structural   Li3MnV(PO4)3
_chemical_formula_sum   'Li6 Mn2 V2 P6 O24'
_cell_volume   475.02761721
_cell_formula_units_Z   2
loop_
 _symmetry_equiv_pos_site_id
 _symmetry_equiv_pos_as_xyz
  1  'x, y, z'
loop_
 _atom_site_type_symbol
 _atom_site_label
 _atom_site_symmetry_multiplicity
 _atom_site_fract_x
 _atom_site_fract_y
 _atom_site_fract_z
 _atom_site_occupancy
  Li  Li0  1  0.262511  0.891716  0.710189  1
  Li  Li1  1  0.959354  0.348661  0.675275  1
  Li  Li2  1  0.108284  0.737489  0.210189  1
  Li  Li3  1  0.381236  0.360196  0.752790  1
  Li  Li4  1  0.639804  0.618764  0.252790  1
  Li  Li5  1  0.651339  0.040646  0.175275  1
  Mn  Mn6  1  0.847092  0.649973  0.638697  1
  Mn  Mn7  1  0.350027  0.152908  0.138697  1
  V  V8  1  0.643196  0.852469  0.859956  1
  V  V9  1  0.147531  0.356804  0.359956  1
  P  P10  1  0.247657  0.529608  0.954321  1
  P  P11  1  0.470392  0.752343  0.454321  1
  P  P12  1  0.950709  0.949895  0.256691  1
  P  P13  1  0.525378  0.246143  0.537481  1
  P  P14  1  0.050105  0.049291  0.756691  1
  P  P15  1  0.753857  0.474622  0.037481  1
  O  O16  1  0.401487  0.722894  0.919317  1
  O  O17  1  0.285512  0.380863  0.939721  1
  O  O18  1  0.521816  0.754453  0.648624  1
  O  O19  1  0.619137  0.714488  0.439721  1
  O  O20  1  0.064568  0.548091  0.791959  1
  O  O21  1  0.755183  0.927094  0.101075  1
  O  O22  1  0.451909  0.935432  0.291959  1
  O  O23  1  0.885799  0.010514  0.807697  1
  O  O24  1  0.031635  0.898027  0.700785  1
  O  O25  1  0.277106  0.598513  0.419317  1
  O  O26  1  0.072906  0.244817  0.601075  1
  O  O27  1  0.742200  0.527306  0.834259  1
  O  O28  1  0.245547  0.478184  0.148624  1
  O  O29  1  0.935279  0.761740  0.425144  1
  O  O30  1  0.722032  0.388564  0.578711  1
  O  O31  1  0.989486  0.114201  0.307697  1
  O  O32  1  0.101973  0.968365  0.200785  1
  O  O33  1  0.516972  0.050083  0.682539  1
  O  O34  1  0.238260  0.064721  0.925144  1
  O  O35  1  0.949917  0.483028  0.182539  1
  O  O36  1  0.381124  0.293452  0.549228  1
  O  O37  1  0.472694  0.257800  0.334259  1
  O  O38  1  0.706548  0.618876  0.049228  1
  O  O39  1  0.611436  0.277968  0.078711  1
