# generated using pymatgen
data_Cr3Ni(SO4)6
_symmetry_space_group_name_H-M   'P 1'
_cell_length_a   8.84288561
_cell_length_b   8.84288561
_cell_length_c   8.84288561
_cell_angle_alpha   55.93831193
_cell_angle_beta   55.93831193
_cell_angle_gamma   55.93831193
_symmetry_Int_Tables_number   1
_chemical_formula_structural   Cr3Ni(SO4)6
_chemical_formula_sum   'Cr3 Ni1 S6 O24'
_cell_volume   442.93092195
_cell_formula_units_Z   1
loop_
 _symmetry_equiv_pos_site_id
 _symmetry_equiv_pos_as_xyz
  1  'x, y, z'
loop_
 _atom_site_type_symbol
 _atom_site_label
 _atom_site_symmetry_multiplicity
 _atom_site_fract_x
 _atom_site_fract_y
 _atom_site_fract_z
 _atom_site_occupancy
  Cr  Cr0  1  0.355910  0.355910  0.355910  1
  Cr  Cr1  1  0.644272  0.644272  0.644272  1
  Cr  Cr2  1  0.849403  0.849403  0.849403  1
  Ni  Ni3  1  0.149968  0.149968  0.149968  1
  S  S4  1  0.040027  0.463660  0.748084  1
  S  S5  1  0.537668  0.252604  0.957776  1
  S  S6  1  0.252604  0.957776  0.537668  1
  S  S7  1  0.748084  0.040027  0.463660  1
  S  S8  1  0.463660  0.748084  0.040027  1
  S  S9  1  0.957776  0.537668  0.252604  1
  O  O10  1  0.299096  0.107843  0.515160  1
  O  O11  1  0.107843  0.515160  0.299096  1
  O  O12  1  0.010444  0.330261  0.951359  1
  O  O13  1  0.023925  0.656924  0.715043  1
  O  O14  1  0.349241  0.285779  0.969637  1
  O  O15  1  0.046798  0.983843  0.674665  1
  O  O16  1  0.515160  0.299096  0.107843  1
  O  O17  1  0.237863  0.381390  0.615621  1
  O  O18  1  0.674665  0.046798  0.983843  1
  O  O19  1  0.381914  0.759418  0.627133  1
  O  O20  1  0.627133  0.381914  0.759418  1
  O  O21  1  0.285779  0.969637  0.349241  1
  O  O22  1  0.715043  0.023925  0.656924  1
  O  O23  1  0.381390  0.615621  0.237863  1
  O  O24  1  0.615621  0.237863  0.381390  1
  O  O25  1  0.330261  0.951359  0.010444  1
  O  O26  1  0.759418  0.627133  0.381914  1
  O  O27  1  0.491418  0.693300  0.892577  1
  O  O28  1  0.951359  0.010444  0.330261  1
  O  O29  1  0.656924  0.715043  0.023925  1
  O  O30  1  0.969637  0.349241  0.285779  1
  O  O31  1  0.983843  0.674665  0.046798  1
  O  O32  1  0.892577  0.491418  0.693300  1
  O  O33  1  0.693300  0.892577  0.491418  1
