# generated using pymatgen
data_LiNb(PO3)4
_symmetry_space_group_name_H-M   'P 1'
_cell_length_a   7.42122705
_cell_length_b   7.45418706
_cell_length_c   10.02583203
_cell_angle_alpha   98.94532174
_cell_angle_beta   109.08333701
_cell_angle_gamma   110.04659094
_symmetry_Int_Tables_number   1
_chemical_formula_structural   LiNb(PO3)4
_chemical_formula_sum   'Li2 Nb2 P8 O24'
_cell_volume   469.49174482
_cell_formula_units_Z   2
loop_
 _symmetry_equiv_pos_site_id
 _symmetry_equiv_pos_as_xyz
  1  'x, y, z'
loop_
 _atom_site_type_symbol
 _atom_site_label
 _atom_site_symmetry_multiplicity
 _atom_site_fract_x
 _atom_site_fract_y
 _atom_site_fract_z
 _atom_site_occupancy
  Li  Li0  1  0.277613  0.021441  0.248236  1
  Li  Li1  1  0.722387  0.978559  0.751764  1
  Nb  Nb2  1  0.500000  0.000000  0.000000  1
  Nb  Nb3  1  0.500000  0.500000  0.500000  1
  P  P4  1  0.009261  0.697234  0.694165  1
  P  P5  1  0.795940  0.257076  0.525792  1
  P  P6  1  0.230540  0.272201  0.977398  1
  P  P7  1  0.496113  0.683677  0.193623  1
  P  P8  1  0.503887  0.316323  0.806377  1
  P  P9  1  0.769460  0.727799  0.022602  1
  P  P10  1  0.204060  0.742924  0.474208  1
  P  P11  1  0.990739  0.302766  0.305835  1
  O  O12  1  0.194694  0.803070  0.840472  1
  O  O13  1  0.618002  0.299369  0.426760  1
  O  O14  1  0.967813  0.465924  0.655647  1
  O  O15  1  0.747107  0.093419  0.591693  1
  O  O16  1  0.461039  0.869454  0.179127  1
  O  O17  1  0.929726  0.224193  0.432873  1
  O  O18  1  0.632620  0.811016  0.926821  1
  O  O19  1  0.000279  0.161399  0.911815  1
  O  O20  1  0.290494  0.497700  0.069169  1
  O  O21  1  0.546354  0.650871  0.342768  1
  O  O22  1  0.310723  0.313189  0.847155  1
  O  O23  1  0.192607  0.286951  0.320650  1
  O  O24  1  0.807393  0.713049  0.679350  1
  O  O25  1  0.689277  0.686811  0.152845  1
  O  O26  1  0.453646  0.349129  0.657232  1
  O  O27  1  0.709506  0.502300  0.930831  1
  O  O28  1  0.999721  0.838601  0.088185  1
  O  O29  1  0.367380  0.188984  0.073179  1
  O  O30  1  0.070274  0.775807  0.567127  1
  O  O31  1  0.538961  0.130546  0.820873  1
  O  O32  1  0.252893  0.906581  0.408307  1
  O  O33  1  0.032187  0.534076  0.344353  1
  O  O34  1  0.381998  0.700631  0.573240  1
  O  O35  1  0.805306  0.196930  0.159528  1
