# generated using pymatgen
data_Li4Mn2VNi3(PO4)6
_symmetry_space_group_name_H-M   'P 1'
_cell_length_a   8.47454819
_cell_length_b   8.56207388
_cell_length_c   8.58529259
_cell_angle_alpha   61.96508480
_cell_angle_beta   62.27670850
_cell_angle_gamma   62.25660276
_symmetry_Int_Tables_number   1
_chemical_formula_structural   Li4Mn2VNi3(PO4)6
_chemical_formula_sum   'Li4 Mn2 V1 Ni3 P6 O24'
_cell_volume   461.79792855
_cell_formula_units_Z   1
loop_
 _symmetry_equiv_pos_site_id
 _symmetry_equiv_pos_as_xyz
  1  'x, y, z'
loop_
 _atom_site_type_symbol
 _atom_site_label
 _atom_site_symmetry_multiplicity
 _atom_site_fract_x
 _atom_site_fract_y
 _atom_site_fract_z
 _atom_site_occupancy
  Li  Li0  1  0.251907  0.647666  0.848495  1
  Li  Li1  1  0.711976  0.353533  0.148768  1
  Li  Li2  1  0.354828  0.146784  0.711124  1
  Li  Li3  1  0.147101  0.710324  0.354728  1
  Mn  Mn4  1  0.983701  0.002175  0.997559  1
  Mn  Mn5  1  0.511540  0.499789  0.495323  1
  V  V6  1  0.147408  0.148105  0.152382  1
  Ni  Ni7  1  0.644142  0.647841  0.643353  1
  Ni  Ni8  1  0.856343  0.853738  0.851586  1
  Ni  Ni9  1  0.354780  0.350223  0.353224  1
  P  P10  1  0.954024  0.549852  0.254492  1
  P  P11  1  0.550637  0.251507  0.954784  1
  P  P12  1  0.251948  0.953868  0.551436  1
  P  P13  1  0.754947  0.043060  0.456078  1
  P  P14  1  0.448191  0.752735  0.041972  1
  P  P15  1  0.050556  0.456936  0.755981  1
  O  O16  1  0.527391  0.312674  0.107225  1
  O  O17  1  0.317331  0.105351  0.524315  1
  O  O18  1  0.106079  0.520640  0.322572  1
  O  O19  1  0.951843  0.731123  0.085514  1
  O  O20  1  0.004577  0.382053  0.190131  1
  O  O21  1  0.762099  0.557356  0.405716  1
  O  O22  1  0.738976  0.096012  0.928164  1
  O  O23  1  0.532006  0.416520  0.773185  1
  O  O24  1  0.821369  0.009995  0.606252  1
  O  O25  1  0.401736  0.758400  0.561828  1
  O  O26  1  0.911314  0.079149  0.253002  1
  O  O27  1  0.611084  0.811237  0.992964  1
  O  O28  1  0.383038  0.180478  0.011953  1
  O  O29  1  0.098932  0.927570  0.744834  1
  O  O30  1  0.597409  0.240378  0.431711  1
  O  O31  1  0.184326  0.003450  0.387434  1
  O  O32  1  0.432989  0.594081  0.237623  1
  O  O33  1  0.248718  0.911529  0.082237  1
  O  O34  1  0.244854  0.426951  0.596456  1
  O  O35  1  0.039982  0.604873  0.814203  1
  O  O36  1  0.076460  0.255613  0.914595  1
  O  O37  1  0.881950  0.493903  0.710802  1
  O  O38  1  0.701127  0.887552  0.476977  1
  O  O39  1  0.450380  0.701976  0.892021  1
