# generated using pymatgen
data_Li24Ti7Cr5O36
_symmetry_space_group_name_H-M   'P 1'
_cell_length_a   5.05627077
_cell_length_b   9.79860823
_cell_length_c   13.45654812
_cell_angle_alpha   97.38080280
_cell_angle_beta   100.79342338
_cell_angle_gamma   94.54178128
_symmetry_Int_Tables_number   1
_chemical_formula_structural   Li24Ti7Cr5O36
_chemical_formula_sum   'Li24 Ti7 Cr5 O36'
_cell_volume   645.81804920
_cell_formula_units_Z   1
loop_
 _symmetry_equiv_pos_site_id
 _symmetry_equiv_pos_as_xyz
  1  'x, y, z'
loop_
 _atom_site_type_symbol
 _atom_site_label
 _atom_site_symmetry_multiplicity
 _atom_site_fract_x
 _atom_site_fract_y
 _atom_site_fract_z
 _atom_site_occupancy
  Li  Li0  1  0.158329  0.001531  0.833949  1
  Li  Li1  1  0.045167  0.001140  0.612052  1
  Li  Li2  1  0.999425  0.750145  0.251256  1
  Li  Li3  1  0.333971  0.749654  0.915549  1
  Li  Li4  1  0.047412  0.498918  0.111893  1
  Li  Li5  1  0.386011  0.501990  0.780552  1
  Li  Li6  1  0.161010  0.502330  0.333635  1
  Li  Li7  1  0.493015  0.498953  0.000827  1
  Li  Li8  1  0.285120  0.501295  0.553752  1
  Li  Li9  1  0.333244  0.249871  0.416455  1
  Li  Li10  1  0.497568  0.998698  0.501756  1
  Li  Li11  1  0.286396  0.000898  0.052558  1
  Li  Li12  1  0.624796  0.998787  0.720409  1
  Li  Li13  1  0.381864  0.000711  0.279022  1
  Li  Li14  1  0.718081  0.000390  0.945887  1
  Li  Li15  1  0.667129  0.750150  0.584634  1
  Li  Li16  1  0.716909  0.498963  0.446065  1
  Li  Li17  1  0.831320  0.498626  0.667382  1
  Li  Li18  1  0.624371  0.499059  0.220480  1
  Li  Li19  1  0.952461  0.499527  0.886709  1
  Li  Li20  1  0.667328  0.250313  0.084678  1
  Li  Li21  1  0.830602  0.000372  0.167583  1
  Li  Li22  1  0.996890  0.249579  0.749638  1
  Li  Li23  1  0.954730  0.000222  0.387670  1
  Ti  Ti24  1  0.230109  0.756793  0.693779  1
  Ti  Ti25  1  0.232653  0.256473  0.194647  1
  Ti  Ti26  1  0.439921  0.248012  0.638690  1
  Ti  Ti27  1  0.554107  0.247061  0.860193  1
  Ti  Ti28  1  0.439879  0.753034  0.139619  1
  Ti  Ti29  1  0.554774  0.746438  0.360755  1
  Ti  Ti30  1  0.881975  0.744948  0.025757  1
  Cr  Cr31  1  0.105989  0.249857  0.973529  1
  Cr  Cr32  1  0.106399  0.750273  0.473570  1
  Cr  Cr33  1  0.784287  0.748698  0.805921  1
  Cr  Cr34  1  0.787703  0.250090  0.307292  1
  Cr  Cr35  1  0.881268  0.248750  0.525572  1
  O  O36  1  0.998154  0.860809  0.924496  1
  O  O37  1  0.061911  0.634891  0.784879  1
  O  O38  1  0.999928  0.360836  0.424354  1
  O  O39  1  0.138512  0.362361  0.640680  1
  O  O40  1  0.260099  0.363315  0.882931  1
  O  O41  1  0.338953  0.864878  0.596702  1
  O  O42  1  0.063637  0.134624  0.285304  1
  O  O43  1  0.186123  0.138613  0.521689  1
  O  O44  1  0.401653  0.136156  0.953014  1
  O  O45  1  0.143027  0.864500  0.142917  1
  O  O46  1  0.261178  0.863919  0.383395  1
  O  O47  1  0.480725  0.861455  0.810662  1
  O  O48  1  0.331600  0.135057  0.737278  1
  O  O49  1  0.190998  0.637014  0.022673  1
  O  O50  1  0.401557  0.636120  0.453217  1
  O  O51  1  0.526947  0.637420  0.690994  1
  O  O52  1  0.332064  0.636288  0.237722  1
  O  O53  1  0.660572  0.635721  0.905176  1
  O  O54  1  0.339919  0.364604  0.097063  1
  O  O55  1  0.663425  0.363380  0.762322  1
  O  O56  1  0.481013  0.362085  0.311501  1
  O  O57  1  0.602771  0.365238  0.547065  1
  O  O58  1  0.818663  0.362288  0.977944  1
  O  O59  1  0.666999  0.863730  0.263398  1
  O  O60  1  0.528070  0.137804  0.192500  1
  O  O61  1  0.733592  0.133859  0.618458  1
  O  O62  1  0.853697  0.135952  0.855526  1
  O  O63  1  0.596096  0.866535  0.048298  1
  O  O64  1  0.818681  0.862225  0.478166  1
  O  O65  1  0.931219  0.865606  0.713590  1
  O  O66  1  0.667505  0.138395  0.408533  1
  O  O67  1  0.737944  0.634428  0.117858  1
  O  O68  1  0.854313  0.635748  0.355736  1
  O  O69  1  0.001593  0.637726  0.567867  1
  O  O70  1  0.932851  0.366119  0.214377  1
  O  O71  1  0.001797  0.137756  0.067994  1
