# generated using pymatgen
data_CrO3
_symmetry_space_group_name_H-M   'P 1'
_cell_length_a   4.86260861
_cell_length_b   4.86260861
_cell_length_c   3.09691653
_cell_angle_alpha   90.00000000
_cell_angle_beta   90.00000000
_cell_angle_gamma   119.45330447
_symmetry_Int_Tables_number   1
_chemical_formula_structural   CrO3
_chemical_formula_sum   'Cr1 O3'
_cell_volume   63.76244582
_cell_formula_units_Z   1
loop_
 _symmetry_equiv_pos_site_id
 _symmetry_equiv_pos_as_xyz
  1  'x, y, z'
loop_
 _atom_site_type_symbol
 _atom_site_label
 _atom_site_symmetry_multiplicity
 _atom_site_fract_x
 _atom_site_fract_y
 _atom_site_fract_z
 _atom_site_occupancy
  Cr  Cr0  1  0.860600  0.860600  0.000000  1
  O  O1  1  0.042121  0.042121  0.500000  1
  O  O2  1  0.514034  0.817524  0.000000  1
  O  O3  1  0.817524  0.514034  0.000000  1
