# generated using pymatgen
data_V6O7F5
_symmetry_space_group_name_H-M   'P 1'
_cell_length_a   4.65724418
_cell_length_b   5.62058705
_cell_length_c   7.81130577
_cell_angle_alpha   86.32027600
_cell_angle_beta   88.84276978
_cell_angle_gamma   89.00992582
_symmetry_Int_Tables_number   1
_chemical_formula_structural   V6O7F5
_chemical_formula_sum   'V6 O7 F5'
_cell_volume   203.98288842
_cell_formula_units_Z   1
loop_
 _symmetry_equiv_pos_site_id
 _symmetry_equiv_pos_as_xyz
  1  'x, y, z'
loop_
 _atom_site_type_symbol
 _atom_site_label
 _atom_site_symmetry_multiplicity
 _atom_site_fract_x
 _atom_site_fract_y
 _atom_site_fract_z
 _atom_site_occupancy
  V  V0  1  0.522452  0.828417  0.644707  1
  V  V1  1  0.494390  0.497914  0.995997  1
  V  V2  1  0.502201  0.182583  0.358124  1
  V  V3  1  0.002885  0.338017  0.672850  1
  V  V4  1  0.974807  0.643896  0.316479  1
  V  V5  1  0.005180  0.003570  0.003099  1
  O  O6  1  0.806832  0.374027  0.436997  1
  O  O7  1  0.806773  0.704527  0.098426  1
  O  O8  1  0.687873  0.539979  0.768867  1
  O  O9  1  0.717721  0.863465  0.425668  1
  O  O10  1  0.305879  0.128324  0.576565  1
  O  O11  1  0.292247  0.471079  0.235397  1
  O  O12  1  0.186187  0.291861  0.907409  1
  F  F13  1  0.798326  0.034822  0.772523  1
  F  F14  1  0.692696  0.195373  0.110167  1
  F  F15  1  0.296535  0.802894  0.887276  1
  F  F16  1  0.210709  0.963731  0.233387  1
  F  F17  1  0.196307  0.635515  0.556059  1
