# generated using pymatgen
data_Ti3Co2Te(PO4)6
_symmetry_space_group_name_H-M   'P 1'
_cell_length_a   8.65259665
_cell_length_b   8.65259665
_cell_length_c   8.65259665
_cell_angle_alpha   61.10779771
_cell_angle_beta   61.10779771
_cell_angle_gamma   61.10779771
_symmetry_Int_Tables_number   1
_chemical_formula_structural   Ti3Co2Te(PO4)6
_chemical_formula_sum   'Ti3 Co2 Te1 P6 O24'
_cell_volume   469.48377955
_cell_formula_units_Z   1
loop_
 _symmetry_equiv_pos_site_id
 _symmetry_equiv_pos_as_xyz
  1  'x, y, z'
loop_
 _atom_site_type_symbol
 _atom_site_label
 _atom_site_symmetry_multiplicity
 _atom_site_fract_x
 _atom_site_fract_y
 _atom_site_fract_z
 _atom_site_occupancy
  Ti  Ti0  1  0.859669  0.859669  0.859669  1
  Ti  Ti1  1  0.643079  0.643079  0.643079  1
  Ti  Ti2  1  0.360079  0.360079  0.360079  1
  Co  Co3  1  0.991664  0.991664  0.991664  1
  Co  Co4  1  0.496158  0.496158  0.496158  1
  Te  Te5  1  0.143213  0.143213  0.143213  1
  P  P6  1  0.744311  0.464830  0.039905  1
  P  P7  1  0.464830  0.039905  0.744311  1
  P  P8  1  0.039905  0.744311  0.464830  1
  P  P9  1  0.953444  0.254603  0.550160  1
  P  P10  1  0.550160  0.953444  0.254603  1
  P  P11  1  0.254603  0.550160  0.953444  1
  O  O12  1  0.883154  0.674221  0.515233  1
  O  O13  1  0.674221  0.515233  0.883154  1
  O  O14  1  0.939856  0.091239  0.738816  1
  O  O15  1  0.515233  0.883154  0.674221  1
  O  O16  1  0.975920  0.191474  0.398375  1
  O  O17  1  0.762429  0.413992  0.570088  1
  O  O18  1  0.738816  0.939856  0.091239  1
  O  O19  1  0.570088  0.762429  0.413992  1
  O  O20  1  0.815285  0.617760  0.999620  1
  O  O21  1  0.413992  0.570088  0.762429  1
  O  O22  1  0.899820  0.269252  0.047686  1
  O  O23  1  0.617760  0.999620  0.815285  1
  O  O24  1  0.398375  0.975920  0.191474  1
  O  O25  1  0.091239  0.738816  0.939856  1
  O  O26  1  0.586094  0.447398  0.232707  1
  O  O27  1  0.191474  0.398375  0.975920  1
  O  O28  1  0.447398  0.232707  0.586094  1
  O  O29  1  0.269252  0.047686  0.899820  1
  O  O30  1  0.232707  0.586094  0.447398  1
  O  O31  1  0.999620  0.815285  0.617760  1
  O  O32  1  0.497453  0.120229  0.310788  1
  O  O33  1  0.047686  0.899820  0.269252  1
  O  O34  1  0.310788  0.497453  0.120229  1
  O  O35  1  0.120229  0.310788  0.497453  1
