# generated using pymatgen
data_Li2MnCO4
_symmetry_space_group_name_H-M   'P 1'
_cell_length_a   6.85482868
_cell_length_b   5.11995954
_cell_length_c   11.04103513
_cell_angle_alpha   90.00000000
_cell_angle_beta   95.59935297
_cell_angle_gamma   90.00000000
_symmetry_Int_Tables_number   1
_chemical_formula_structural   Li2MnCO4
_chemical_formula_sum   'Li8 Mn4 C4 O16'
_cell_volume   385.65212671
_cell_formula_units_Z   4
loop_
 _symmetry_equiv_pos_site_id
 _symmetry_equiv_pos_as_xyz
  1  'x, y, z'
loop_
 _atom_site_type_symbol
 _atom_site_label
 _atom_site_symmetry_multiplicity
 _atom_site_fract_x
 _atom_site_fract_y
 _atom_site_fract_z
 _atom_site_occupancy
  Li  Li0  1  0.117853  0.653321  0.785928  1
  Li  Li1  1  0.117853  0.846679  0.285928  1
  Li  Li2  1  0.219299  0.814920  0.570798  1
  Li  Li3  1  0.219299  0.685080  0.070798  1
  Li  Li4  1  0.780701  0.314920  0.929202  1
  Li  Li5  1  0.780701  0.185080  0.429202  1
  Li  Li6  1  0.882147  0.153321  0.714072  1
  Li  Li7  1  0.882147  0.346679  0.214072  1
  Mn  Mn8  1  0.515318  0.853754  0.843600  1
  Mn  Mn9  1  0.484682  0.353754  0.656400  1
  Mn  Mn10  1  0.515318  0.646246  0.343600  1
  Mn  Mn11  1  0.484682  0.146246  0.156400  1
  C  C12  1  0.186563  0.186849  0.935842  1
  C  C13  1  0.186563  0.313151  0.435842  1
  C  C14  1  0.813437  0.686849  0.564158  1
  C  C15  1  0.813437  0.813151  0.064158  1
  O  O16  1  0.059962  0.298841  0.856697  1
  O  O17  1  0.059962  0.201159  0.356697  1
  O  O18  1  0.223740  0.936327  0.927472  1
  O  O19  1  0.223740  0.563673  0.427472  1
  O  O20  1  0.276252  0.176224  0.523207  1
  O  O21  1  0.355261  0.673426  0.710325  1
  O  O22  1  0.276252  0.323776  0.023207  1
  O  O23  1  0.355261  0.826574  0.210325  1
  O  O24  1  0.644739  0.173426  0.789675  1
  O  O25  1  0.723748  0.676224  0.976793  1
  O  O26  1  0.644739  0.326574  0.289675  1
  O  O27  1  0.723748  0.823776  0.476793  1
  O  O28  1  0.776260  0.436327  0.572528  1
  O  O29  1  0.776260  0.063673  0.072528  1
  O  O30  1  0.940038  0.798841  0.643303  1
  O  O31  1  0.940038  0.701159  0.143303  1
