# generated using pymatgen
data_Li8FeO6
_symmetry_space_group_name_H-M   'P 1'
_cell_length_a   5.60721427
_cell_length_b   5.60721427
_cell_length_c   10.91673829
_cell_angle_alpha   90.00000000
_cell_angle_beta   90.00000000
_cell_angle_gamma   120.74391193
_symmetry_Int_Tables_number   1
_chemical_formula_structural   Li8FeO6
_chemical_formula_sum   'Li16 Fe2 O12'
_cell_volume   294.99404165
_cell_formula_units_Z   2
loop_
 _symmetry_equiv_pos_site_id
 _symmetry_equiv_pos_as_xyz
  1  'x, y, z'
loop_
 _atom_site_type_symbol
 _atom_site_label
 _atom_site_symmetry_multiplicity
 _atom_site_fract_x
 _atom_site_fract_y
 _atom_site_fract_z
 _atom_site_occupancy
  Li  Li0  1  0.804082  0.493493  0.768908  1
  Li  Li1  1  0.889334  0.499387  0.127161  1
  Li  Li2  1  0.110666  0.500613  0.627161  1
  Li  Li3  1  0.195918  0.506507  0.268908  1
  Li  Li4  1  0.830010  0.163291  0.408467  1
  Li  Li5  1  0.836709  0.169990  0.908467  1
  Li  Li6  1  0.189199  0.189199  0.767314  1
  Li  Li7  1  0.113152  0.113152  0.127050  1
  Li  Li8  1  0.886848  0.886848  0.627050  1
  Li  Li9  1  0.506507  0.195918  0.268908  1
  Li  Li10  1  0.810801  0.810801  0.267314  1
  Li  Li11  1  0.500613  0.110666  0.627161  1
  Li  Li12  1  0.169990  0.836709  0.908467  1
  Li  Li13  1  0.163291  0.830010  0.408467  1
  Li  Li14  1  0.499387  0.889334  0.127161  1
  Li  Li15  1  0.493493  0.804082  0.768908  1
  Fe  Fe16  1  0.502820  0.502820  0.993629  1
  Fe  Fe17  1  0.497180  0.497180  0.493629  1
  O  O18  1  0.811774  0.489565  0.949708  1
  O  O19  1  0.188226  0.510435  0.449708  1
  O  O20  1  0.834689  0.166574  0.215979  1
  O  O21  1  0.503456  0.503456  0.169494  1
  O  O22  1  0.496544  0.496544  0.669494  1
  O  O23  1  0.833426  0.165311  0.715979  1
  O  O24  1  0.185755  0.185755  0.946921  1
  O  O25  1  0.510435  0.188226  0.449708  1
  O  O26  1  0.814245  0.814245  0.446921  1
  O  O27  1  0.165311  0.833426  0.715979  1
  O  O28  1  0.166574  0.834689  0.215979  1
  O  O29  1  0.489565  0.811774  0.949708  1
