# generated using pymatgen
data_Li4Fe7(PO4)6
_symmetry_space_group_name_H-M   'P 1'
_cell_length_a   8.96418809
_cell_length_b   8.96418809
_cell_length_c   6.57041680
_cell_angle_alpha   80.42937117
_cell_angle_beta   99.57062883
_cell_angle_gamma   74.42957407
_symmetry_Int_Tables_number   1
_chemical_formula_structural   Li4Fe7(PO4)6
_chemical_formula_sum   'Li4 Fe7 P6 O24'
_cell_volume   489.00516649
_cell_formula_units_Z   1
loop_
 _symmetry_equiv_pos_site_id
 _symmetry_equiv_pos_as_xyz
  1  'x, y, z'
loop_
 _atom_site_type_symbol
 _atom_site_label
 _atom_site_symmetry_multiplicity
 _atom_site_fract_x
 _atom_site_fract_y
 _atom_site_fract_z
 _atom_site_occupancy
  Li  Li0  1  0.002926  0.997074  0.502616  1
  Li  Li1  1  0.629955  0.370045  0.418932  1
  Li  Li2  1  0.330791  0.438400  0.503146  1
  Li  Li3  1  0.561600  0.669209  0.503146  1
  Fe  Fe4  1  0.357085  0.002393  0.818909  1
  Fe  Fe5  1  0.997607  0.642915  0.818909  1
  Fe  Fe6  1  0.998326  0.001674  0.002149  1
  Fe  Fe7  1  0.664198  0.672928  0.997822  1
  Fe  Fe8  1  0.327072  0.335802  0.997822  1
  Fe  Fe9  1  0.637267  0.008022  0.177306  1
  Fe  Fe10  1  0.991978  0.362733  0.177306  1
  P  P11  1  0.276762  0.098232  0.301160  1
  P  P12  1  0.901768  0.723238  0.301160  1
  P  P13  1  0.670057  0.329943  0.905791  1
  P  P14  1  0.323148  0.676852  0.083807  1
  P  P15  1  0.715507  0.920102  0.695541  1
  P  P16  1  0.079898  0.284493  0.695541  1
  O  O17  1  0.651218  0.037921  0.480993  1
  O  O18  1  0.962079  0.348782  0.480993  1
  O  O19  1  0.949387  0.626904  0.130370  1
  O  O20  1  0.373096  0.050613  0.130370  1
  O  O21  1  0.802678  0.197322  0.870698  1
  O  O22  1  0.742948  0.431509  0.045169  1
  O  O23  1  0.568491  0.257052  0.045169  1
  O  O24  1  0.097475  0.106117  0.244203  1
  O  O25  1  0.893883  0.902525  0.244203  1
  O  O26  1  0.268759  0.278625  0.288741  1
  O  O27  1  0.721375  0.731241  0.288741  1
  O  O28  1  0.564350  0.435650  0.692308  1
  O  O29  1  0.436087  0.563913  0.289893  1
  O  O30  1  0.708815  0.744780  0.700555  1
  O  O31  1  0.255220  0.291185  0.700555  1
  O  O32  1  0.898222  0.897657  0.759622  1
  O  O33  1  0.102343  0.101778  0.759622  1
  O  O34  1  0.193625  0.806375  0.130160  1
  O  O35  1  0.618844  0.972405  0.862984  1
  O  O36  1  0.027595  0.381156  0.862984  1
  O  O37  1  0.244788  0.576567  0.950031  1
  O  O38  1  0.423433  0.755212  0.950031  1
  O  O39  1  0.016488  0.646075  0.514867  1
  O  O40  1  0.353925  0.983512  0.514867  1
