# generated using pymatgen
data_BaSrI4
_symmetry_space_group_name_H-M   'P 1'
_cell_length_a   10.21900744
_cell_length_b   11.19704226
_cell_length_c   11.20805500
_cell_angle_alpha   90.00000000
_cell_angle_beta   90.00000000
_cell_angle_gamma   90.00000000
_symmetry_Int_Tables_number   1
_chemical_formula_structural   BaSrI4
_chemical_formula_sum   'Ba4 Sr4 I16'
_cell_volume   1282.45544591
_cell_formula_units_Z   4
loop_
 _symmetry_equiv_pos_site_id
 _symmetry_equiv_pos_as_xyz
  1  'x, y, z'
loop_
 _atom_site_type_symbol
 _atom_site_label
 _atom_site_symmetry_multiplicity
 _atom_site_fract_x
 _atom_site_fract_y
 _atom_site_fract_z
 _atom_site_occupancy
  Ba  Ba0  1  0.995832  0.761436  0.216861  1
  Ba  Ba1  1  0.504168  0.261436  0.716861  1
  Ba  Ba2  1  0.495832  0.738564  0.216861  1
  Ba  Ba3  1  0.004168  0.238564  0.716861  1
  Sr  Sr4  1  0.227112  0.250798  0.217283  1
  Sr  Sr5  1  0.272888  0.750798  0.717283  1
  Sr  Sr6  1  0.727112  0.249202  0.217283  1
  Sr  Sr7  1  0.772888  0.749202  0.717283  1
  I  I8  1  0.020542  0.766501  0.527585  1
  I  I9  1  0.021012  0.774296  0.906339  1
  I  I10  1  0.243653  0.456218  0.725670  1
  I  I11  1  0.234200  0.544971  0.205643  1
  I  I12  1  0.265800  0.044971  0.705643  1
  I  I13  1  0.256347  0.956218  0.225670  1
  I  I14  1  0.478988  0.274296  0.406338  1
  I  I15  1  0.479458  0.266501  0.027585  1
  I  I16  1  0.520542  0.733499  0.527585  1
  I  I17  1  0.521012  0.725704  0.906339  1
  I  I18  1  0.743653  0.043782  0.725670  1
  I  I19  1  0.734200  0.955029  0.205643  1
  I  I20  1  0.765800  0.455029  0.705643  1
  I  I21  1  0.756347  0.543782  0.225670  1
  I  I22  1  0.978988  0.225704  0.406338  1
  I  I23  1  0.979458  0.233499  0.027585  1
