# generated using pymatgen
data_Li7Mn5O12
_symmetry_space_group_name_H-M   'P 1'
_cell_length_a   5.05452221
_cell_length_b   5.05452221
_cell_length_c   9.79505137
_cell_angle_alpha   86.19384272
_cell_angle_beta   93.80615728
_cell_angle_gamma   62.45905427
_symmetry_Int_Tables_number   1
_chemical_formula_structural   Li7Mn5O12
_chemical_formula_sum   'Li7 Mn5 O12'
_cell_volume   220.06200465
_cell_formula_units_Z   1
loop_
 _symmetry_equiv_pos_site_id
 _symmetry_equiv_pos_as_xyz
  1  'x, y, z'
loop_
 _atom_site_type_symbol
 _atom_site_label
 _atom_site_symmetry_multiplicity
 _atom_site_fract_x
 _atom_site_fract_y
 _atom_site_fract_z
 _atom_site_occupancy
  Li  Li0  1  0.587232  0.084884  0.752727  1
  Li  Li1  1  0.084884  0.587232  0.247273  1
  Li  Li2  1  0.249428  0.750572  0.756687  1
  Li  Li3  1  0.750572  0.249428  0.243313  1
  Li  Li4  1  0.915116  0.412768  0.752727  1
  Li  Li5  1  0.412768  0.915116  0.247273  1
  Li  Li6  1  0.000000  0.000000  0.000000  1
  Mn  Mn7  1  0.668232  0.668232  0.000000  1
  Mn  Mn8  1  0.331768  0.331768  0.000000  1
  Mn  Mn9  1  0.166713  0.166713  0.500000  1
  Mn  Mn10  1  0.833287  0.833287  0.500000  1
  Mn  Mn11  1  0.500000  0.500000  0.500000  1
  O  O12  1  0.977509  0.665824  0.891121  1
  O  O13  1  0.435599  0.230570  0.382642  1
  O  O14  1  0.606049  0.393951  0.887475  1
  O  O15  1  0.100896  0.899104  0.380171  1
  O  O16  1  0.334176  0.022491  0.891121  1
  O  O17  1  0.769430  0.564401  0.382642  1
  O  O18  1  0.230570  0.435599  0.617358  1
  O  O19  1  0.665824  0.977509  0.108879  1
  O  O20  1  0.899104  0.100896  0.619829  1
  O  O21  1  0.393951  0.606049  0.112525  1
  O  O22  1  0.564401  0.769430  0.617358  1
  O  O23  1  0.022491  0.334176  0.108879  1
