# generated using pymatgen
data_Li3Cr3(CoO6)2
_symmetry_space_group_name_H-M   'P 1'
_cell_length_a   8.78147681
_cell_length_b   9.25763180
_cell_length_c   15.05285941
_cell_angle_alpha   90.00000000
_cell_angle_beta   124.27010927
_cell_angle_gamma   90.00000000
_symmetry_Int_Tables_number   1
_chemical_formula_structural   Li3Cr3(CoO6)2
_chemical_formula_sum   'Li12 Cr12 Co8 O48'
_cell_volume   1011.28289406
_cell_formula_units_Z   4
loop_
 _symmetry_equiv_pos_site_id
 _symmetry_equiv_pos_as_xyz
  1  'x, y, z'
loop_
 _atom_site_type_symbol
 _atom_site_label
 _atom_site_symmetry_multiplicity
 _atom_site_fract_x
 _atom_site_fract_y
 _atom_site_fract_z
 _atom_site_occupancy
  Li  Li0  1  0.381008  0.913380  0.303228  1
  Li  Li1  1  0.717726  0.491275  0.657354  1
  Li  Li2  1  0.986658  0.228188  0.820884  1
  Li  Li3  1  0.013342  0.728188  0.679116  1
  Li  Li4  1  0.618992  0.413380  0.196772  1
  Li  Li5  1  0.282274  0.991275  0.842646  1
  Li  Li6  1  0.717726  0.008725  0.157354  1
  Li  Li7  1  0.381008  0.586620  0.803228  1
  Li  Li8  1  0.986658  0.271812  0.320884  1
  Li  Li9  1  0.013342  0.771812  0.179116  1
  Li  Li10  1  0.282274  0.508725  0.342646  1
  Li  Li11  1  0.618992  0.086620  0.696772  1
  Cr  Cr12  1  0.550540  0.751274  0.508120  1
  Cr  Cr13  1  0.266330  0.618622  0.148401  1
  Cr  Cr14  1  0.970318  0.887170  0.854058  1
  Cr  Cr15  1  0.733670  0.118622  0.351599  1
  Cr  Cr16  1  0.029682  0.387170  0.645942  1
  Cr  Cr17  1  0.449460  0.251274  0.991880  1
  Cr  Cr18  1  0.550540  0.748726  0.008120  1
  Cr  Cr19  1  0.970318  0.612830  0.354058  1
  Cr  Cr20  1  0.266330  0.881378  0.648401  1
  Cr  Cr21  1  0.029682  0.112830  0.145942  1
  Cr  Cr22  1  0.733670  0.381378  0.851599  1
  Cr  Cr23  1  0.449460  0.248726  0.491880  1
  Co  Co24  1  0.353094  0.969622  0.110606  1
  Co  Co25  1  0.646906  0.469622  0.389394  1
  Co  Co26  1  0.878939  0.033511  0.616508  1
  Co  Co27  1  0.121061  0.533511  0.883492  1
  Co  Co28  1  0.878939  0.466489  0.116508  1
  Co  Co29  1  0.121061  0.966489  0.383492  1
  Co  Co30  1  0.353094  0.530378  0.610606  1
  Co  Co31  1  0.646906  0.030378  0.889394  1
  O  O32  1  0.612757  0.122516  0.556478  1
  O  O33  1  0.151415  0.117065  0.093913  1
  O  O34  1  0.454174  0.334497  0.395670  1
  O  O35  1  0.876490  0.423061  0.805554  1
  O  O36  1  0.511415  0.632828  0.413297  1
  O  O37  1  0.280872  0.807896  0.166561  1
  O  O38  1  0.149231  0.586096  0.016757  1
  O  O39  1  0.875417  0.011605  0.753958  1
  O  O40  1  0.979320  0.726419  0.805777  1
  O  O41  1  0.759961  0.823055  0.564628  1
  O  O42  1  0.471089  0.529471  0.227155  1
  O  O43  1  0.528911  0.029471  0.272845  1
  O  O44  1  0.187289  0.944431  0.943138  1
  O  O45  1  0.812711  0.444431  0.556862  1
  O  O46  1  0.240039  0.323055  0.935372  1
  O  O47  1  0.020680  0.226419  0.694223  1
  O  O48  1  0.850769  0.086096  0.483243  1
  O  O49  1  0.124583  0.511605  0.746042  1
  O  O50  1  0.719128  0.307896  0.333439  1
  O  O51  1  0.488585  0.132828  0.086703  1
  O  O52  1  0.545826  0.834497  0.104330  1
  O  O53  1  0.848585  0.617065  0.406087  1
  O  O54  1  0.123510  0.923061  0.694446  1
  O  O55  1  0.387243  0.622516  0.943522  1
  O  O56  1  0.612757  0.377484  0.056478  1
  O  O57  1  0.876490  0.076939  0.305554  1
  O  O58  1  0.151415  0.382935  0.593913  1
  O  O59  1  0.454174  0.165503  0.895670  1
  O  O60  1  0.511415  0.867172  0.913297  1
  O  O61  1  0.280872  0.692104  0.666561  1
  O  O62  1  0.875417  0.488395  0.253958  1
  O  O63  1  0.149231  0.913904  0.516757  1
  O  O64  1  0.979320  0.773581  0.305777  1
  O  O65  1  0.759961  0.676945  0.064628  1
  O  O66  1  0.187289  0.555569  0.443138  1
  O  O67  1  0.812711  0.055569  0.056862  1
  O  O68  1  0.471089  0.970529  0.727155  1
  O  O69  1  0.528911  0.470529  0.772845  1
  O  O70  1  0.240039  0.176945  0.435372  1
  O  O71  1  0.020680  0.273581  0.194223  1
  O  O72  1  0.124583  0.988395  0.246042  1
  O  O73  1  0.850769  0.413904  0.983243  1
  O  O74  1  0.719128  0.192104  0.833439  1
  O  O75  1  0.488585  0.367172  0.586703  1
  O  O76  1  0.123510  0.576939  0.194446  1
  O  O77  1  0.545826  0.665503  0.604330  1
  O  O78  1  0.848585  0.882935  0.906087  1
  O  O79  1  0.387243  0.877484  0.443522  1
