# generated using pymatgen
data_Li3MnF7
_symmetry_space_group_name_H-M   'P 1'
_cell_length_a   5.28119232
_cell_length_b   7.03653084
_cell_length_c   8.02067710
_cell_angle_alpha   71.30334819
_cell_angle_beta   75.81828989
_cell_angle_gamma   83.92525823
_symmetry_Int_Tables_number   1
_chemical_formula_structural   Li3MnF7
_chemical_formula_sum   'Li6 Mn2 F14'
_cell_volume   273.60445229
_cell_formula_units_Z   2
loop_
 _symmetry_equiv_pos_site_id
 _symmetry_equiv_pos_as_xyz
  1  'x, y, z'
loop_
 _atom_site_type_symbol
 _atom_site_label
 _atom_site_symmetry_multiplicity
 _atom_site_fract_x
 _atom_site_fract_y
 _atom_site_fract_z
 _atom_site_occupancy
  Li  Li0  1  0.862976  0.992456  0.719611  1
  Li  Li1  1  0.799681  0.544502  0.681471  1
  Li  Li2  1  0.291333  0.714598  0.569122  1
  Li  Li3  1  0.201608  0.435457  0.322257  1
  Li  Li4  1  0.131833  0.006426  0.249760  1
  Li  Li5  1  0.658218  0.239154  0.103798  1
  Mn  Mn6  1  0.282841  0.284499  0.792698  1
  Mn  Mn7  1  0.709030  0.713470  0.201068  1
  F  F8  1  0.670955  0.833633  0.972988  1
  F  F9  1  0.161600  0.053855  0.792899  1
  F  F10  1  0.941449  0.355628  0.896352  1
  F  F11  1  0.415718  0.526984  0.781350  1
  F  F12  1  0.950366  0.783538  0.631607  1
  F  F13  1  0.611651  0.217101  0.685904  1
  F  F14  1  0.196915  0.429127  0.573870  1
  F  F15  1  0.740926  0.597043  0.437172  1
  F  F16  1  0.364114  0.781432  0.303697  1
  F  F17  1  0.145303  0.177305  0.366707  1
  F  F18  1  0.585070  0.473551  0.201554  1
  F  F19  1  0.044326  0.635243  0.130522  1
  F  F20  1  0.805042  0.962551  0.206492  1
  F  F21  1  0.356960  0.175012  0.018577  1
