# generated using pymatgen
data_Na2Fe2O5
_symmetry_space_group_name_H-M   'P 1'
_cell_length_a   5.42084932
_cell_length_b   5.53526501
_cell_length_c   14.55295330
_cell_angle_alpha   90.00000000
_cell_angle_beta   90.00000000
_cell_angle_gamma   90.00000000
_symmetry_Int_Tables_number   1
_chemical_formula_structural   Na2Fe2O5
_chemical_formula_sum   'Na8 Fe8 O20'
_cell_volume   436.67355287
_cell_formula_units_Z   4
loop_
 _symmetry_equiv_pos_site_id
 _symmetry_equiv_pos_as_xyz
  1  'x, y, z'
loop_
 _atom_site_type_symbol
 _atom_site_label
 _atom_site_symmetry_multiplicity
 _atom_site_fract_x
 _atom_site_fract_y
 _atom_site_fract_z
 _atom_site_occupancy
  Na  Na0  1  0.984764  0.522388  0.392282  1
  Na  Na1  1  0.984764  0.522388  0.107718  1
  Na  Na2  1  0.484764  0.977612  0.392282  1
  Na  Na3  1  0.484764  0.977612  0.107718  1
  Na  Na4  1  0.515236  0.022388  0.892282  1
  Na  Na5  1  0.515236  0.022388  0.607718  1
  Na  Na6  1  0.015236  0.477612  0.892282  1
  Na  Na7  1  0.015236  0.477612  0.607718  1
  Fe  Fe8  1  0.500000  0.500000  0.500000  1
  Fe  Fe9  1  0.500000  0.500000  0.000000  1
  Fe  Fe10  1  0.548533  0.570183  0.750000  1
  Fe  Fe11  1  0.048533  0.929817  0.750000  1
  Fe  Fe12  1  0.000000  0.000000  0.500000  1
  Fe  Fe13  1  0.000000  0.000000  0.000000  1
  Fe  Fe14  1  0.951467  0.070183  0.250000  1
  Fe  Fe15  1  0.451467  0.429817  0.250000  1
  O  O16  1  0.515785  0.555696  0.361342  1
  O  O17  1  0.515785  0.555696  0.138658  1
  O  O18  1  0.887774  0.631245  0.750000  1
  O  O19  1  0.754548  0.742085  0.988247  1
  O  O20  1  0.754548  0.742085  0.511753  1
  O  O21  1  0.254548  0.757915  0.988247  1
  O  O22  1  0.254548  0.757915  0.511753  1
  O  O23  1  0.387774  0.868755  0.750000  1
  O  O24  1  0.015785  0.944304  0.361342  1
  O  O25  1  0.015785  0.944304  0.138658  1
  O  O26  1  0.984215  0.055696  0.861342  1
  O  O27  1  0.984215  0.055696  0.638658  1
  O  O28  1  0.612226  0.131245  0.250000  1
  O  O29  1  0.745452  0.242085  0.488247  1
  O  O30  1  0.745452  0.242085  0.011753  1
  O  O31  1  0.245452  0.257915  0.011753  1
  O  O32  1  0.245452  0.257915  0.488247  1
  O  O33  1  0.112226  0.368755  0.250000  1
  O  O34  1  0.484215  0.444304  0.861342  1
  O  O35  1  0.484215  0.444304  0.638658  1
