# generated using pymatgen
data_NaLiMn2Fe4(PO4)6
_symmetry_space_group_name_H-M   'P 1'
_cell_length_a   6.47192671
_cell_length_b   8.68452334
_cell_length_c   8.75474861
_cell_angle_alpha   92.72093061
_cell_angle_beta   106.69931007
_cell_angle_gamma   106.28241648
_symmetry_Int_Tables_number   1
_chemical_formula_structural   NaLiMn2Fe4(PO4)6
_chemical_formula_sum   'Na1 Li1 Mn2 Fe4 P6 O24'
_cell_volume   448.00145823
_cell_formula_units_Z   1
loop_
 _symmetry_equiv_pos_site_id
 _symmetry_equiv_pos_as_xyz
  1  'x, y, z'
loop_
 _atom_site_type_symbol
 _atom_site_label
 _atom_site_symmetry_multiplicity
 _atom_site_fract_x
 _atom_site_fract_y
 _atom_site_fract_z
 _atom_site_occupancy
  Na  Na0  1  0.001447  0.498318  0.500899  1
  Li  Li1  1  0.753502  0.010831  0.990147  1
  Mn  Mn2  1  0.252780  0.269876  0.729899  1
  Mn  Mn3  1  0.745897  0.723115  0.277271  1
  Fe  Fe4  1  0.364846  0.934504  0.621729  1
  Fe  Fe5  1  0.871884  0.629986  0.932988  1
  Fe  Fe6  1  0.135939  0.376080  0.067604  1
  Fe  Fe7  1  0.627306  0.065603  0.371767  1
  P  P8  1  0.374983  0.656583  0.869306  1
  P  P9  1  0.870088  0.866089  0.651477  1
  P  P10  1  0.248604  0.712879  0.285365  1
  P  P11  1  0.750999  0.286585  0.715247  1
  P  P12  1  0.120655  0.132608  0.345521  1
  P  P13  1  0.633656  0.347146  0.131168  1
  O  O14  1  0.103256  0.995040  0.665782  1
  O  O15  1  0.186930  0.609834  0.954967  1
  O  O16  1  0.405141  0.829928  0.819887  1
  O  O17  1  0.607049  0.669142  0.997933  1
  O  O18  1  0.679311  0.950393  0.594720  1
  O  O19  1  0.875259  0.822525  0.822403  1
  O  O20  1  0.310009  0.525421  0.727241  1
  O  O21  1  0.236828  0.741787  0.458707  1
  O  O22  1  0.030437  0.736999  0.169053  1
  O  O23  1  0.467097  0.830053  0.264257  1
  O  O24  1  0.827460  0.721119  0.529478  1
  O  O25  1  0.746097  0.461813  0.743086  1
  O  O26  1  0.257177  0.537826  0.258623  1
  O  O27  1  0.168144  0.274571  0.472385  1
  O  O28  1  0.535063  0.167292  0.740357  1
  O  O29  1  0.966008  0.257440  0.833724  1
  O  O30  1  0.760181  0.256758  0.541843  1
  O  O31  1  0.693670  0.473118  0.276626  1
  O  O32  1  0.093979  0.178176  0.171953  1
  O  O33  1  0.315827  0.051540  0.397780  1
  O  O34  1  0.398696  0.336052  0.007618  1
  O  O35  1  0.625603  0.175901  0.178630  1
  O  O36  1  0.817760  0.398826  0.042826  1
  O  O37  1  0.890433  0.998924  0.329060  1
