# generated using pymatgen
data_SrV4O10
_symmetry_space_group_name_H-M   'P 1'
_cell_length_a   6.26925125
_cell_length_b   7.46832814
_cell_length_c   9.06207533
_cell_angle_alpha   89.95886187
_cell_angle_beta   92.08287578
_cell_angle_gamma   107.45334264
_symmetry_Int_Tables_number   1
_chemical_formula_structural   SrV4O10
_chemical_formula_sum   'Sr2 V8 O20'
_cell_volume   404.46949837
_cell_formula_units_Z   2
loop_
 _symmetry_equiv_pos_site_id
 _symmetry_equiv_pos_as_xyz
  1  'x, y, z'
loop_
 _atom_site_type_symbol
 _atom_site_label
 _atom_site_symmetry_multiplicity
 _atom_site_fract_x
 _atom_site_fract_y
 _atom_site_fract_z
 _atom_site_occupancy
  Sr  Sr0  1  0.817691  0.707230  0.013202  1
  Sr  Sr1  1  0.182309  0.292770  0.986798  1
  V  V2  1  0.878966  0.464761  0.660718  1
  V  V3  1  0.543062  0.880921  0.340001  1
  V  V4  1  0.456938  0.119079  0.659999  1
  V  V5  1  0.121034  0.535239  0.339282  1
  V  V6  1  0.862907  0.971040  0.660342  1
  V  V7  1  0.527412  0.387284  0.334878  1
  V  V8  1  0.472588  0.612716  0.665122  1
  V  V9  1  0.137093  0.028960  0.339658  1
  O  O10  1  0.920693  0.996456  0.845209  1
  O  O11  1  0.913423  0.460851  0.846205  1
  O  O12  1  0.844677  0.466204  0.397103  1
  O  O13  1  0.825668  0.952287  0.410829  1
  O  O14  1  0.800277  0.692269  0.650314  1
  O  O15  1  0.792752  0.205296  0.629087  1
  O  O16  1  0.567963  0.865275  0.160840  1
  O  O17  1  0.553784  0.417885  0.150835  1
  O  O18  1  0.530125  0.377575  0.603878  1
  O  O19  1  0.528283  0.888083  0.633780  1
  O  O20  1  0.471717  0.111917  0.366220  1
  O  O21  1  0.469875  0.622425  0.396122  1
  O  O22  1  0.446216  0.582115  0.849165  1
  O  O23  1  0.432037  0.134725  0.839160  1
  O  O24  1  0.207248  0.794704  0.370913  1
  O  O25  1  0.199723  0.307731  0.349686  1
  O  O26  1  0.174332  0.047713  0.589171  1
  O  O27  1  0.155323  0.533796  0.602897  1
  O  O28  1  0.086577  0.539149  0.153795  1
  O  O29  1  0.079307  0.003544  0.154791  1
