# generated using pymatgen
data_Ba3(ClO)2
_symmetry_space_group_name_H-M   'P 1'
_cell_length_a   6.27849570
_cell_length_b   7.39168328
_cell_length_c   19.21390461
_cell_angle_alpha   90.00000000
_cell_angle_beta   90.00000000
_cell_angle_gamma   90.00000000
_symmetry_Int_Tables_number   1
_chemical_formula_structural   Ba3(ClO)2
_chemical_formula_sum   'Ba12 Cl8 O8'
_cell_volume   891.69140664
_cell_formula_units_Z   4
loop_
 _symmetry_equiv_pos_site_id
 _symmetry_equiv_pos_as_xyz
  1  'x, y, z'
loop_
 _atom_site_type_symbol
 _atom_site_label
 _atom_site_symmetry_multiplicity
 _atom_site_fract_x
 _atom_site_fract_y
 _atom_site_fract_z
 _atom_site_occupancy
  Ba  Ba0  1  0.250000  0.157147  0.023373  1
  Ba  Ba1  1  0.250000  0.680634  0.106532  1
  Ba  Ba2  1  0.750000  0.044702  0.163942  1
  Ba  Ba3  1  0.250000  0.544702  0.336058  1
  Ba  Ba4  1  0.750000  0.180634  0.393468  1
  Ba  Ba5  1  0.750000  0.657147  0.476627  1
  Ba  Ba6  1  0.250000  0.342853  0.523373  1
  Ba  Ba7  1  0.250000  0.819366  0.606532  1
  Ba  Ba8  1  0.750000  0.455298  0.663942  1
  Ba  Ba9  1  0.250000  0.955298  0.836058  1
  Ba  Ba10  1  0.750000  0.319366  0.893468  1
  Ba  Ba11  1  0.750000  0.842853  0.976627  1
  Cl  Cl12  1  0.750000  0.407921  0.058403  1
  Cl  Cl13  1  0.250000  0.210633  0.231851  1
  Cl  Cl14  1  0.750000  0.710633  0.268149  1
  Cl  Cl15  1  0.250000  0.907921  0.441597  1
  Cl  Cl16  1  0.750000  0.092079  0.558403  1
  Cl  Cl17  1  0.250000  0.289367  0.731851  1
  Cl  Cl18  1  0.750000  0.789367  0.768149  1
  Cl  Cl19  1  0.250000  0.592079  0.941597  1
  O  O20  1  0.499723  0.915794  0.080652  1
  O  O21  1  0.000277  0.915794  0.080652  1
  O  O22  1  0.999723  0.415794  0.419348  1
  O  O23  1  0.500277  0.415794  0.419348  1
  O  O24  1  0.499723  0.584206  0.580652  1
  O  O25  1  0.000277  0.584206  0.580652  1
  O  O26  1  0.999723  0.084206  0.919348  1
  O  O27  1  0.500277  0.084206  0.919348  1
