# generated using pymatgen
data_Li4MnOF5
_symmetry_space_group_name_H-M   'P 1'
_cell_length_a   5.92398385
_cell_length_b   5.92398385
_cell_length_c   12.90041104
_cell_angle_alpha   89.94186380
_cell_angle_beta   90.05813620
_cell_angle_gamma   59.57785824
_symmetry_Int_Tables_number   1
_chemical_formula_structural   Li4MnOF5
_chemical_formula_sum   'Li12 Mn3 O3 F15'
_cell_volume   390.38925057
_cell_formula_units_Z   3
loop_
 _symmetry_equiv_pos_site_id
 _symmetry_equiv_pos_as_xyz
  1  'x, y, z'
loop_
 _atom_site_type_symbol
 _atom_site_label
 _atom_site_symmetry_multiplicity
 _atom_site_fract_x
 _atom_site_fract_y
 _atom_site_fract_z
 _atom_site_occupancy
  Li  Li0  1  0.673085  0.999048  0.788438  1
  Li  Li1  1  0.678641  0.999904  0.484864  1
  Li  Li2  1  0.665278  0.666852  0.625464  1
  Li  Li3  1  0.680807  0.668326  0.326978  1
  Li  Li4  1  0.333148  0.334722  0.625464  1
  Li  Li5  1  0.327977  0.672023  0.791959  1
  Li  Li6  1  0.331674  0.319193  0.326978  1
  Li  Li7  1  0.322383  0.677617  0.486132  1
  Li  Li8  1  0.333582  0.666418  0.170548  1
  Li  Li9  1  0.000952  0.326915  0.788438  1
  Li  Li10  1  0.000096  0.321359  0.484864  1
  Li  Li11  1  0.981895  0.018105  0.326099  1
  Mn  Mn12  1  0.331846  0.334478  0.980530  1
  Mn  Mn13  1  0.996650  0.003350  0.980691  1
  Mn  Mn14  1  0.665523  0.668154  0.980530  1
  O  O15  1  0.671930  0.994755  0.970877  1
  O  O16  1  0.005245  0.328070  0.970877  1
  O  O17  1  0.338272  0.661728  0.962289  1
  F  F18  1  0.619053  0.999318  0.649037  1
  F  F19  1  0.675143  0.666521  0.827451  1
  F  F20  1  0.660405  0.667300  0.480552  1
  F  F21  1  0.664749  0.000675  0.327074  1
  F  F22  1  0.637763  0.667288  0.123684  1
  F  F23  1  0.333479  0.324857  0.827451  1
  F  F24  1  0.332700  0.339595  0.480552  1
  F  F25  1  0.332712  0.362237  0.123684  1
  F  F26  1  0.382191  0.617809  0.652415  1
  F  F27  1  0.334122  0.665878  0.312929  1
  F  F28  1  0.000682  0.380947  0.649037  1
  F  F29  1  0.992570  0.007430  0.826573  1
  F  F30  1  0.003180  0.996820  0.477534  1
  F  F31  1  0.999325  0.335251  0.327074  1
  F  F32  1  0.026917  0.973083  0.123861  1
