# generated using pymatgen
data_Li2TiCo2O5
_symmetry_space_group_name_H-M   'P 1'
_cell_length_a   7.85039240
_cell_length_b   7.85039240
_cell_length_c   5.15055351
_cell_angle_alpha   83.64519540
_cell_angle_beta   96.35480460
_cell_angle_gamma   38.17643179
_symmetry_Int_Tables_number   1
_chemical_formula_structural   Li2TiCo2O5
_chemical_formula_sum   'Li4 Ti2 Co4 O10'
_cell_volume   184.61430029
_cell_formula_units_Z   2
loop_
 _symmetry_equiv_pos_site_id
 _symmetry_equiv_pos_as_xyz
  1  'x, y, z'
loop_
 _atom_site_type_symbol
 _atom_site_label
 _atom_site_symmetry_multiplicity
 _atom_site_fract_x
 _atom_site_fract_y
 _atom_site_fract_z
 _atom_site_occupancy
  Li  Li0  1  0.099728  0.099728  0.000000  1
  Li  Li1  1  0.499931  0.499931  0.000000  1
  Li  Li2  1  0.599624  0.599624  0.500000  1
  Li  Li3  1  0.795973  0.795973  0.500000  1
  Ti  Ti4  1  0.690768  0.690768  0.000000  1
  Ti  Ti5  1  0.996424  0.996424  0.500000  1
  Co  Co6  1  0.301083  0.301083  0.000000  1
  Co  Co7  1  0.199324  0.199324  0.500000  1
  Co  Co8  1  0.399830  0.399830  0.500000  1
  Co  Co9  1  0.903076  0.903076  0.000000  1
  O  O10  1  0.146971  0.667198  0.742693  1
  O  O11  1  0.039103  0.553152  0.240614  1
  O  O12  1  0.355126  0.847568  0.752853  1
  O  O13  1  0.553152  0.039103  0.759386  1
  O  O14  1  0.667198  0.146971  0.257307  1
  O  O15  1  0.234419  0.764494  0.270743  1
  O  O16  1  0.465578  0.935649  0.229808  1
  O  O17  1  0.764494  0.234419  0.729257  1
  O  O18  1  0.935649  0.465578  0.770192  1
  O  O19  1  0.847568  0.355126  0.247147  1
