# generated using pymatgen
data_Ba2La2Fe2Cu2O11
_symmetry_space_group_name_H-M   'P 1'
_cell_length_a   5.60291237
_cell_length_b   5.60291237
_cell_length_c   16.00790726
_cell_angle_alpha   90.00000000
_cell_angle_beta   90.00000000
_cell_angle_gamma   90.00000000
_symmetry_Int_Tables_number   1
_chemical_formula_structural   Ba2La2Fe2Cu2O11
_chemical_formula_sum   'Ba4 La4 Fe4 Cu4 O22'
_cell_volume   502.53026295
_cell_formula_units_Z   2
loop_
 _symmetry_equiv_pos_site_id
 _symmetry_equiv_pos_as_xyz
  1  'x, y, z'
loop_
 _atom_site_type_symbol
 _atom_site_label
 _atom_site_symmetry_multiplicity
 _atom_site_fract_x
 _atom_site_fract_y
 _atom_site_fract_z
 _atom_site_occupancy
  Ba  Ba0  1  0.500000  0.000000  0.621276  1
  Ba  Ba1  1  0.000000  0.500000  0.873745  1
  Ba  Ba2  1  0.000000  0.500000  0.621276  1
  Ba  Ba3  1  0.500000  0.000000  0.873745  1
  La  La4  1  0.500000  0.000000  0.122956  1
  La  La5  1  0.000000  0.500000  0.370595  1
  La  La6  1  0.000000  0.500000  0.122956  1
  La  La7  1  0.500000  0.000000  0.370595  1
  Fe  Fe8  1  0.000000  0.000000  0.252153  1
  Fe  Fe9  1  0.500000  0.500000  0.481267  1
  Fe  Fe10  1  0.000000  0.000000  0.734100  1
  Fe  Fe11  1  0.500000  0.500000  0.003553  1
  Cu  Cu12  1  0.500000  0.500000  0.246967  1
  Cu  Cu13  1  0.000000  0.000000  0.495602  1
  Cu  Cu14  1  0.500000  0.500000  0.761794  1
  Cu  Cu15  1  0.000000  0.000000  0.010767  1
  O  O16  1  0.500000  0.500000  0.125382  1
  O  O17  1  0.247345  0.752655  0.252743  1
  O  O18  1  0.247345  0.247345  0.252743  1
  O  O19  1  0.000000  0.000000  0.372490  1
  O  O20  1  0.000000  0.000000  0.135794  1
  O  O21  1  0.752655  0.752655  0.252743  1
  O  O22  1  0.752655  0.247345  0.252743  1
  O  O23  1  0.741364  0.258636  0.490213  1
  O  O24  1  0.741364  0.741364  0.490213  1
  O  O25  1  0.500000  0.500000  0.365935  1
  O  O26  1  0.258636  0.258636  0.490213  1
  O  O27  1  0.258636  0.741364  0.490213  1
  O  O28  1  0.246747  0.753253  0.752021  1
  O  O29  1  0.246747  0.246747  0.752021  1
  O  O30  1  0.000000  0.000000  0.617835  1
  O  O31  1  0.753253  0.753253  0.752021  1
  O  O32  1  0.753253  0.246747  0.752021  1
  O  O33  1  0.754652  0.245349  0.013230  1
  O  O34  1  0.754652  0.754652  0.013230  1
  O  O35  1  0.500000  0.500000  0.887047  1
  O  O36  1  0.245349  0.245348  0.013230  1
  O  O37  1  0.245348  0.754652  0.013230  1
