# generated using pymatgen
data_Li4Cr2Cu3Sb3O16
_symmetry_space_group_name_H-M   'P 1'
_cell_length_a   6.10268286
_cell_length_b   6.10268286
_cell_length_c   9.63337785
_cell_angle_alpha   88.28927878
_cell_angle_beta   91.71072122
_cell_angle_gamma   120.92935074
_symmetry_Int_Tables_number   1
_chemical_formula_structural   Li4Cr2Cu3Sb3O16
_chemical_formula_sum   'Li4 Cr2 Cu3 Sb3 O16'
_cell_volume   307.57519636
_cell_formula_units_Z   1
loop_
 _symmetry_equiv_pos_site_id
 _symmetry_equiv_pos_as_xyz
  1  'x, y, z'
loop_
 _atom_site_type_symbol
 _atom_site_label
 _atom_site_symmetry_multiplicity
 _atom_site_fract_x
 _atom_site_fract_y
 _atom_site_fract_z
 _atom_site_occupancy
  Li  Li0  1  0.669685  0.330315  0.095514  1
  Li  Li1  1  0.005683  0.994317  0.994842  1
  Li  Li2  1  0.032789  0.967211  0.519516  1
  Li  Li3  1  0.339965  0.660035  0.615119  1
  Cr  Cr4  1  0.658055  0.341945  0.522029  1
  Cr  Cr5  1  0.321716  0.678284  0.004469  1
  Cu  Cu6  1  0.829690  0.663481  0.788491  1
  Cu  Cu7  1  0.336519  0.170310  0.788491  1
  Cu  Cu8  1  0.168548  0.831452  0.280230  1
  Sb  Sb9  1  0.826382  0.173618  0.784482  1
  Sb  Sb10  1  0.662887  0.832196  0.286976  1
  Sb  Sb11  1  0.167804  0.337113  0.286976  1
  O  O12  1  0.832941  0.678964  0.398293  1
  O  O13  1  0.524345  0.475655  0.656103  1
  O  O14  1  0.667831  0.332169  0.891477  1
  O  O15  1  0.994027  0.005973  0.698147  1
  O  O16  1  0.985401  0.014599  0.179031  1
  O  O17  1  0.321036  0.167059  0.398293  1
  O  O18  1  0.965719  0.472119  0.647981  1
  O  O19  1  0.527881  0.034281  0.647981  1
  O  O20  1  0.160071  0.839929  0.908559  1
  O  O21  1  0.841490  0.158510  0.400018  1
  O  O22  1  0.487236  0.962290  0.161190  1
  O  O23  1  0.037710  0.512764  0.161190  1
  O  O24  1  0.348561  0.651439  0.403788  1
  O  O25  1  0.660747  0.854142  0.906462  1
  O  O26  1  0.481167  0.518833  0.159896  1
  O  O27  1  0.145858  0.339253  0.906462  1
