# generated using pymatgen
data_LiMnF4
_symmetry_space_group_name_H-M   'P 1'
_cell_length_a   5.04222608
_cell_length_b   5.04222608
_cell_length_c   6.43150341
_cell_angle_alpha   90.00000000
_cell_angle_beta   90.00000000
_cell_angle_gamma   108.16289461
_symmetry_Int_Tables_number   1
_chemical_formula_structural   LiMnF4
_chemical_formula_sum   'Li2 Mn2 F8'
_cell_volume   155.36755522
_cell_formula_units_Z   2
loop_
 _symmetry_equiv_pos_site_id
 _symmetry_equiv_pos_as_xyz
  1  'x, y, z'
loop_
 _atom_site_type_symbol
 _atom_site_label
 _atom_site_symmetry_multiplicity
 _atom_site_fract_x
 _atom_site_fract_y
 _atom_site_fract_z
 _atom_site_occupancy
  Li  Li0  1  0.636578  0.363422  0.250000  1
  Li  Li1  1  0.363422  0.636578  0.750000  1
  Mn  Mn2  1  0.000000  0.000000  0.000000  1
  Mn  Mn3  1  0.000000  0.000000  0.500000  1
  F  F4  1  0.207680  0.235079  0.750000  1
  F  F5  1  0.235079  0.207680  0.250000  1
  F  F6  1  0.223689  0.776311  0.518937  1
  F  F7  1  0.776311  0.223689  0.018937  1
  F  F8  1  0.223689  0.776311  0.981063  1
  F  F9  1  0.776311  0.223689  0.481063  1
  F  F10  1  0.792320  0.764921  0.250000  1
  F  F11  1  0.764921  0.792320  0.750000  1
