# generated using pymatgen
data_Ba3(LaI6)2
_symmetry_space_group_name_H-M   'P 1'
_cell_length_a   15.20030237
_cell_length_b   13.92024009
_cell_length_c   21.63600432
_cell_angle_alpha   90.00000000
_cell_angle_beta   134.08788376
_cell_angle_gamma   90.00000000
_symmetry_Int_Tables_number   1
_chemical_formula_structural   Ba3(LaI6)2
_chemical_formula_sum   'Ba12 La8 I48'
_cell_volume   3288.25752941
_cell_formula_units_Z   4
loop_
 _symmetry_equiv_pos_site_id
 _symmetry_equiv_pos_as_xyz
  1  'x, y, z'
loop_
 _atom_site_type_symbol
 _atom_site_label
 _atom_site_symmetry_multiplicity
 _atom_site_fract_x
 _atom_site_fract_y
 _atom_site_fract_z
 _atom_site_occupancy
  Ba  Ba0  1  0.265712  0.219982  0.219980  1
  Ba  Ba1  1  0.296736  0.597750  0.291659  1
  Ba  Ba2  1  0.680381  0.987884  0.493873  1
  Ba  Ba3  1  0.319619  0.487884  0.006127  1
  Ba  Ba4  1  0.703264  0.097750  0.208341  1
  Ba  Ba5  1  0.734288  0.719982  0.280020  1
  Ba  Ba6  1  0.265712  0.280018  0.719980  1
  Ba  Ba7  1  0.296736  0.902250  0.791659  1
  Ba  Ba8  1  0.680381  0.512116  0.993873  1
  Ba  Ba9  1  0.319619  0.012116  0.506127  1
  Ba  Ba10  1  0.703264  0.402250  0.708341  1
  Ba  Ba11  1  0.734288  0.780018  0.780020  1
  La  La12  1  0.264999  0.854711  0.073409  1
  La  La13  1  0.038689  0.166326  0.850910  1
  La  La14  1  0.735001  0.354711  0.426591  1
  La  La15  1  0.961311  0.666326  0.649090  1
  La  La16  1  0.038689  0.333674  0.350910  1
  La  La17  1  0.264999  0.645289  0.573409  1
  La  La18  1  0.961311  0.833674  0.149090  1
  La  La19  1  0.735001  0.145289  0.926591  1
  I  I20  1  0.101000  0.744321  0.101213  1
  I  I21  1  0.440741  0.136920  0.432296  1
  I  I22  1  0.244812  0.448544  0.146113  1
  I  I23  1  0.568755  0.441079  0.449302  1
  I  I24  1  0.775504  0.114961  0.681441  1
  I  I25  1  0.793398  0.621792  0.683050  1
  I  I26  1  0.017383  0.964348  0.915508  1
  I  I27  1  0.356255  0.984714  0.224628  1
  I  I28  1  0.132405  0.687317  0.940246  1
  I  I29  1  0.005856  0.380038  0.791177  1
  I  I30  1  0.278069  0.237081  0.035523  1
  I  I31  1  0.447455  0.703418  0.212849  1
  I  I32  1  0.552545  0.203418  0.287151  1
  I  I33  1  0.721931  0.737081  0.464477  1
  I  I34  1  0.994144  0.880038  0.708823  1
  I  I35  1  0.867595  0.187317  0.559754  1
  I  I36  1  0.643745  0.484714  0.275372  1
  I  I37  1  0.982617  0.464348  0.584492  1
  I  I38  1  0.206602  0.121792  0.816950  1
  I  I39  1  0.431245  0.941079  0.050698  1
  I  I40  1  0.224496  0.614961  0.818559  1
  I  I41  1  0.755188  0.948544  0.353887  1
  I  I42  1  0.559259  0.636920  0.067704  1
  I  I43  1  0.899000  0.244321  0.398787  1
  I  I44  1  0.101000  0.755679  0.601213  1
  I  I45  1  0.440741  0.363080  0.932296  1
  I  I46  1  0.244812  0.051456  0.646113  1
  I  I47  1  0.775504  0.385039  0.181441  1
  I  I48  1  0.568755  0.058921  0.949302  1
  I  I49  1  0.793398  0.878208  0.183050  1
  I  I50  1  0.017383  0.535652  0.415508  1
  I  I51  1  0.356255  0.515286  0.724628  1
  I  I52  1  0.132405  0.812683  0.440246  1
  I  I53  1  0.005856  0.119962  0.291177  1
  I  I54  1  0.278069  0.262919  0.535523  1
  I  I55  1  0.447455  0.796582  0.712849  1
  I  I56  1  0.552545  0.296582  0.787151  1
  I  I57  1  0.721931  0.762919  0.964477  1
  I  I58  1  0.994144  0.619962  0.208823  1
  I  I59  1  0.867595  0.312683  0.059754  1
  I  I60  1  0.643745  0.015286  0.775372  1
  I  I61  1  0.982617  0.035652  0.084492  1
  I  I62  1  0.206602  0.378208  0.316950  1
  I  I63  1  0.224496  0.885039  0.318559  1
  I  I64  1  0.431245  0.558921  0.550698  1
  I  I65  1  0.755188  0.551456  0.853887  1
  I  I66  1  0.559259  0.863080  0.567704  1
  I  I67  1  0.899000  0.255679  0.898787  1
