# generated using pymatgen
data_Co6OF11
_symmetry_space_group_name_H-M   'P 1'
_cell_length_a   4.72733116
_cell_length_b   4.72733116
_cell_length_c   9.59031326
_cell_angle_alpha   90.00000000
_cell_angle_beta   90.00000000
_cell_angle_gamma   91.31118273
_symmetry_Int_Tables_number   1
_chemical_formula_structural   Co6OF11
_chemical_formula_sum   'Co6 O1 F11'
_cell_volume   214.26494156
_cell_formula_units_Z   1
loop_
 _symmetry_equiv_pos_site_id
 _symmetry_equiv_pos_as_xyz
  1  'x, y, z'
loop_
 _atom_site_type_symbol
 _atom_site_label
 _atom_site_symmetry_multiplicity
 _atom_site_fract_x
 _atom_site_fract_y
 _atom_site_fract_z
 _atom_site_occupancy
  Co  Co0  1  0.006141  0.006141  0.659890  1
  Co  Co1  1  0.006141  0.006141  0.340110  1
  Co  Co2  1  0.003278  0.003278  1.000000  1
  Co  Co3  1  0.469107  0.469107  0.500000  1
  Co  Co4  1  0.504050  0.504050  0.832344  1
  Co  Co5  1  0.504050  0.504050  0.167656  1
  O  O6  1  0.200798  0.200798  0.500000  1
  F  F7  1  0.199234  0.199234  0.831861  1
  F  F8  1  0.199234  0.199234  0.168139  1
  F  F9  1  0.694437  0.305154  0.336191  1
  F  F10  1  0.694437  0.305154  0.663809  1
  F  F11  1  0.700385  0.307785  0.000000  1
  F  F12  1  0.307785  0.700385  1.000000  1
  F  F13  1  0.305154  0.694437  0.663809  1
  F  F14  1  0.305154  0.694437  0.336191  1
  F  F15  1  0.783549  0.783549  0.500000  1
  F  F16  1  0.808534  0.808534  0.830094  1
  F  F17  1  0.808534  0.808534  0.169906  1
