# generated using pymatgen
data_LiNb2O4
_symmetry_space_group_name_H-M   'P 1'
_cell_length_a   2.97299874
_cell_length_b   5.16517638
_cell_length_c   10.72680012
_cell_angle_alpha   90.00000000
_cell_angle_beta   90.00000000
_cell_angle_gamma   90.00000000
_symmetry_Int_Tables_number   1
_chemical_formula_structural   LiNb2O4
_chemical_formula_sum   'Li2 Nb4 O8'
_cell_volume   164.72141719
_cell_formula_units_Z   2
loop_
 _symmetry_equiv_pos_site_id
 _symmetry_equiv_pos_as_xyz
  1  'x, y, z'
loop_
 _atom_site_type_symbol
 _atom_site_label
 _atom_site_symmetry_multiplicity
 _atom_site_fract_x
 _atom_site_fract_y
 _atom_site_fract_z
 _atom_site_occupancy
  Li  Li0  1  0.500000  0.500000  0.500000  1
  Li  Li1  1  0.000000  0.000000  0.000000  1
  Nb  Nb2  1  0.500000  0.836460  0.743042  1
  Nb  Nb3  1  0.500000  0.163540  0.256958  1
  Nb  Nb4  1  0.000000  0.663540  0.243042  1
  Nb  Nb5  1  0.000000  0.336460  0.756958  1
  O  O6  1  0.500000  0.844718  0.130187  1
  O  O7  1  0.500000  0.155282  0.869813  1
  O  O8  1  0.500000  0.818141  0.362185  1
  O  O9  1  0.500000  0.181859  0.637815  1
  O  O10  1  0.000000  0.681859  0.862185  1
  O  O11  1  0.000000  0.318141  0.137815  1
  O  O12  1  0.000000  0.655282  0.630187  1
  O  O13  1  0.000000  0.344718  0.369813  1
