# generated using pymatgen
data_TlCrO4
_symmetry_space_group_name_H-M   'P 1'
_cell_length_a   5.85224699
_cell_length_b   8.77324024
_cell_length_c   14.90789048
_cell_angle_alpha   90.00000000
_cell_angle_beta   90.00000000
_cell_angle_gamma   90.00000000
_symmetry_Int_Tables_number   1
_chemical_formula_structural   TlCrO4
_chemical_formula_sum   'Tl8 Cr8 O32'
_cell_volume   765.41833717
_cell_formula_units_Z   8
loop_
 _symmetry_equiv_pos_site_id
 _symmetry_equiv_pos_as_xyz
  1  'x, y, z'
loop_
 _atom_site_type_symbol
 _atom_site_label
 _atom_site_symmetry_multiplicity
 _atom_site_fract_x
 _atom_site_fract_y
 _atom_site_fract_z
 _atom_site_occupancy
  Tl  Tl0  1  0.250000  0.319957  0.603576  1
  Tl  Tl1  1  0.750000  0.819957  0.896424  1
  Tl  Tl2  1  0.250000  0.036714  0.370537  1
  Tl  Tl3  1  0.750000  0.536714  0.129463  1
  Tl  Tl4  1  0.750000  0.680043  0.396424  1
  Tl  Tl5  1  0.250000  0.180043  0.103576  1
  Tl  Tl6  1  0.750000  0.963286  0.629463  1
  Tl  Tl7  1  0.250000  0.463286  0.870537  1
  Cr  Cr8  1  0.750000  0.280775  0.466909  1
  Cr  Cr9  1  0.750000  0.219225  0.966909  1
  Cr  Cr10  1  0.250000  0.019166  0.785355  1
  Cr  Cr11  1  0.750000  0.980834  0.214645  1
  Cr  Cr12  1  0.750000  0.519166  0.714645  1
  Cr  Cr13  1  0.250000  0.780775  0.033091  1
  Cr  Cr14  1  0.250000  0.719225  0.533091  1
  Cr  Cr15  1  0.250000  0.480834  0.285355  1
  O  O16  1  0.250000  0.743217  0.138580  1
  O  O17  1  0.488686  0.912038  0.798291  1
  O  O18  1  0.750000  0.468336  0.484037  1
  O  O19  1  0.750000  0.845090  0.142072  1
  O  O20  1  0.014809  0.699782  0.984340  1
  O  O21  1  0.485191  0.699782  0.984340  1
  O  O22  1  0.250000  0.405491  0.181146  1
  O  O23  1  0.011314  0.912038  0.798291  1
  O  O24  1  0.250000  0.756783  0.638580  1
  O  O25  1  0.250000  0.531664  0.515963  1
  O  O26  1  0.250000  0.094509  0.681146  1
  O  O27  1  0.988686  0.087962  0.201709  1
  O  O28  1  0.750000  0.031664  0.984037  1
  O  O29  1  0.750000  0.594509  0.818854  1
  O  O30  1  0.988686  0.412038  0.701709  1
  O  O31  1  0.750000  0.905491  0.318854  1
  O  O32  1  0.511314  0.412038  0.701709  1
  O  O33  1  0.985191  0.300218  0.015660  1
  O  O34  1  0.250000  0.345090  0.357928  1
  O  O35  1  0.250000  0.968336  0.015963  1
  O  O36  1  0.011314  0.587962  0.298291  1
  O  O37  1  0.514809  0.300218  0.015660  1
  O  O38  1  0.750000  0.256783  0.861420  1
  O  O39  1  0.985191  0.199782  0.515660  1
  O  O40  1  0.014809  0.800218  0.484340  1
  O  O41  1  0.750000  0.654910  0.642072  1
  O  O42  1  0.488686  0.587962  0.298291  1
  O  O43  1  0.750000  0.243217  0.361420  1
  O  O44  1  0.511314  0.087962  0.201709  1
  O  O45  1  0.514809  0.199782  0.515660  1
  O  O46  1  0.250000  0.154910  0.857928  1
  O  O47  1  0.485191  0.800218  0.484340  1
