# generated using pymatgen
data_LiCuS
_symmetry_space_group_name_H-M   'P 1'
_cell_length_a   4.92905477
_cell_length_b   5.15033701
_cell_length_c   8.32292937
_cell_angle_alpha   90.00000000
_cell_angle_beta   90.00000000
_cell_angle_gamma   90.00000000
_symmetry_Int_Tables_number   1
_chemical_formula_structural   LiCuS
_chemical_formula_sum   'Li4 Cu4 S4'
_cell_volume   211.28832532
_cell_formula_units_Z   4
loop_
 _symmetry_equiv_pos_site_id
 _symmetry_equiv_pos_as_xyz
  1  'x, y, z'
loop_
 _atom_site_type_symbol
 _atom_site_label
 _atom_site_symmetry_multiplicity
 _atom_site_fract_x
 _atom_site_fract_y
 _atom_site_fract_z
 _atom_site_occupancy
  Li  Li0  1  0.750000  0.513997  0.861464  1
  Li  Li1  1  0.250000  0.013997  0.638536  1
  Li  Li2  1  0.750000  0.986003  0.361464  1
  Li  Li3  1  0.250000  0.486003  0.138536  1
  Cu  Cu4  1  0.500000  0.000000  0.000000  1
  Cu  Cu5  1  0.000000  0.000000  0.000000  1
  Cu  Cu6  1  0.500000  0.500000  0.500000  1
  Cu  Cu7  1  0.000000  0.500000  0.500000  1
  S  S8  1  0.250000  0.717868  0.872384  1
  S  S9  1  0.750000  0.217868  0.627616  1
  S  S10  1  0.250000  0.782132  0.372384  1
  S  S11  1  0.750000  0.282132  0.127616  1
