# generated using pymatgen
data_Na3CuPCO7
_symmetry_space_group_name_H-M   'P 1'
_cell_length_a   5.29019459
_cell_length_b   6.51904867
_cell_length_c   9.05636860
_cell_angle_alpha   90.00000000
_cell_angle_beta   93.33923559
_cell_angle_gamma   90.00000000
_symmetry_Int_Tables_number   1
_chemical_formula_structural   Na3CuPCO7
_chemical_formula_sum   'Na6 Cu2 P2 C2 O14'
_cell_volume   311.79702930
_cell_formula_units_Z   2
loop_
 _symmetry_equiv_pos_site_id
 _symmetry_equiv_pos_as_xyz
  1  'x, y, z'
loop_
 _atom_site_type_symbol
 _atom_site_label
 _atom_site_symmetry_multiplicity
 _atom_site_fract_x
 _atom_site_fract_y
 _atom_site_fract_z
 _atom_site_occupancy
  Na  Na0  1  0.242544  0.494364  0.726468  1
  Na  Na1  1  0.757456  0.994364  0.273532  1
  Na  Na2  1  0.757456  0.505636  0.273532  1
  Na  Na3  1  0.242544  0.005636  0.726468  1
  Na  Na4  1  0.216965  0.750000  0.083853  1
  Na  Na5  1  0.783035  0.250000  0.916147  1
  Cu  Cu6  1  0.240957  0.250000  0.346875  1
  Cu  Cu7  1  0.759043  0.750000  0.653125  1
  P  P8  1  0.307348  0.750000  0.418695  1
  P  P9  1  0.692652  0.250000  0.581305  1
  C  C10  1  0.291478  0.250000  0.052486  1
  C  C11  1  0.708522  0.750000  0.947514  1
  O  O12  1  0.096205  0.250000  0.136020  1
  O  O13  1  0.903795  0.750000  0.863980  1
  O  O14  1  0.518130  0.250000  0.112724  1
  O  O15  1  0.481870  0.750000  0.887276  1
  O  O16  1  0.246245  0.250000  0.910793  1
  O  O17  1  0.753755  0.750000  0.089207  1
  O  O18  1  0.239214  0.938644  0.317040  1
  O  O19  1  0.760786  0.438644  0.682960  1
  O  O20  1  0.760786  0.061356  0.682960  1
  O  O21  1  0.239214  0.561356  0.317040  1
  O  O22  1  0.169153  0.750000  0.561878  1
  O  O23  1  0.830847  0.250000  0.438122  1
  O  O24  1  0.397087  0.250000  0.547511  1
  O  O25  1  0.602913  0.750000  0.452489  1
