# generated using pymatgen
data_VO2
_symmetry_space_group_name_H-M   'P 1'
_cell_length_a   7.72902197
_cell_length_b   8.59806472
_cell_length_c   8.64903425
_cell_angle_alpha   89.82806912
_cell_angle_beta   89.96367591
_cell_angle_gamma   89.93503058
_symmetry_Int_Tables_number   1
_chemical_formula_structural   VO2
_chemical_formula_sum   'V16 O32'
_cell_volume   574.76530884
_cell_formula_units_Z   16
loop_
 _symmetry_equiv_pos_site_id
 _symmetry_equiv_pos_as_xyz
  1  'x, y, z'
loop_
 _atom_site_type_symbol
 _atom_site_label
 _atom_site_symmetry_multiplicity
 _atom_site_fract_x
 _atom_site_fract_y
 _atom_site_fract_z
 _atom_site_occupancy
  V  V0  1  0.628344  0.460903  0.252594  1
  V  V1  1  0.124794  0.749308  0.944333  1
  V  V2  1  0.874123  0.240076  0.449909  1
  V  V3  1  0.372903  0.961875  0.750254  1
  V  V4  1  0.875300  0.537465  0.749214  1
  V  V5  1  0.375879  0.260623  0.452428  1
  V  V6  1  0.123264  0.449278  0.242527  1
  V  V7  1  0.625717  0.752107  0.945276  1
  V  V8  1  0.623702  0.758096  0.547649  1
  V  V9  1  0.126775  0.049804  0.241760  1
  V  V10  1  0.376648  0.254090  0.056923  1
  V  V11  1  0.873377  0.240177  0.048831  1
  V  V12  1  0.373942  0.550526  0.757500  1
  V  V13  1  0.622186  0.050603  0.242533  1
  V  V14  1  0.877954  0.943550  0.748643  1
  V  V15  1  0.125595  0.748778  0.537657  1
  O  O16  1  0.381209  0.403243  0.254627  1
  O  O17  1  0.869356  0.401511  0.252388  1
  O  O18  1  0.881417  0.750152  0.597610  1
  O  O19  1  0.124522  0.251799  0.397134  1
  O  O20  1  0.124209  0.252322  0.100473  1
  O  O21  1  0.131721  0.902340  0.749451  1
  O  O22  1  0.368799  0.742492  0.598707  1
  O  O23  1  0.874615  0.752805  0.898624  1
  O  O24  1  0.630728  0.599736  0.747766  1
  O  O25  1  0.374407  0.101525  0.251527  1
  O  O26  1  0.624880  0.245679  0.399024  1
  O  O27  1  0.619075  0.901298  0.744465  1
  O  O28  1  0.118745  0.597081  0.749881  1
  O  O29  1  0.375674  0.746564  0.897485  1
  O  O30  1  0.874605  0.100854  0.251621  1
  O  O31  1  0.625559  0.249055  0.100090  1
  O  O32  1  0.374496  0.083983  0.593185  1
  O  O33  1  0.874428  0.415639  0.594480  1
  O  O34  1  0.124238  0.593805  0.415771  1
  O  O35  1  0.125332  0.911466  0.099982  1
  O  O36  1  0.375180  0.411247  0.900829  1
  O  O37  1  0.874505  0.099307  0.911848  1
  O  O38  1  0.624038  0.902996  0.413391  1
  O  O39  1  0.625022  0.583926  0.099757  1
  O  O40  1  0.874240  0.417761  0.907068  1
  O  O41  1  0.375467  0.404560  0.587100  1
  O  O42  1  0.375817  0.083805  0.902682  1
  O  O43  1  0.624714  0.911189  0.099249  1
  O  O44  1  0.874830  0.098043  0.589017  1
  O  O45  1  0.126248  0.906696  0.417967  1
  O  O46  1  0.125361  0.586492  0.099680  1
  O  O47  1  0.626058  0.583371  0.409090  1
