# generated using pymatgen
data_Ga2P2H9NO11
_symmetry_space_group_name_H-M   'P 1'
_cell_length_a   9.94554284
_cell_length_b   9.87877033
_cell_length_c   12.88578980
_cell_angle_alpha   90.00000000
_cell_angle_beta   129.72329378
_cell_angle_gamma   90.00000000
_symmetry_Int_Tables_number   1
_chemical_formula_structural   Ga2P2H9NO11
_chemical_formula_sum   'Ga8 P8 H36 N4 O44'
_cell_volume   973.75053168
_cell_formula_units_Z   4
loop_
 _symmetry_equiv_pos_site_id
 _symmetry_equiv_pos_as_xyz
  1  'x, y, z'
loop_
 _atom_site_type_symbol
 _atom_site_label
 _atom_site_symmetry_multiplicity
 _atom_site_fract_x
 _atom_site_fract_y
 _atom_site_fract_z
 _atom_site_occupancy
  Ga  Ga0  1  0.289884  0.762774  0.171825  1
  Ga  Ga1  1  0.985247  0.526569  0.868943  1
  Ga  Ga2  1  0.710116  0.262774  0.328175  1
  Ga  Ga3  1  0.014753  0.026569  0.631057  1
  Ga  Ga4  1  0.985247  0.973431  0.368943  1
  Ga  Ga5  1  0.289884  0.737226  0.671825  1
  Ga  Ga6  1  0.014753  0.473431  0.131057  1
  Ga  Ga7  1  0.710116  0.237226  0.828175  1
  P  P8  1  0.346211  0.459676  0.155233  1
  P  P9  1  0.837497  0.305345  0.630700  1
  P  P10  1  0.653789  0.959676  0.344767  1
  P  P11  1  0.162503  0.805345  0.869300  1
  P  P12  1  0.837497  0.194655  0.130700  1
  P  P13  1  0.346211  0.040324  0.655233  1
  P  P14  1  0.162503  0.694655  0.369300  1
  P  P15  1  0.653789  0.540324  0.844767  1
  H  H16  1  0.239351  0.175414  0.166282  1
  H  H17  1  0.169259  0.004057  0.105503  1
  H  H18  1  0.422538  0.759453  0.436709  1
  H  H19  1  0.448637  0.133805  0.377722  1
  H  H20  1  0.690501  0.741370  0.655407  1
  H  H21  1  0.688698  0.889025  0.586546  1
  H  H22  1  0.341181  0.127270  0.121483  1
  H  H23  1  0.887187  0.055714  0.808466  1
  H  H24  1  0.031480  0.290011  0.973888  1
  H  H25  1  0.658819  0.627270  0.378517  1
  H  H26  1  0.551363  0.633805  0.122278  1
  H  H27  1  0.422538  0.740547  0.936709  1
  H  H28  1  0.830741  0.504057  0.394497  1
  H  H29  1  0.968520  0.790011  0.526112  1
  H  H30  1  0.760649  0.675414  0.333718  1
  H  H31  1  0.112813  0.555714  0.691534  1
  H  H32  1  0.690501  0.758630  0.155407  1
  H  H33  1  0.688698  0.610975  0.086546  1
  H  H34  1  0.311302  0.389025  0.913454  1
  H  H35  1  0.309499  0.241370  0.844593  1
  H  H36  1  0.887187  0.444286  0.308466  1
  H  H37  1  0.239351  0.324586  0.666282  1
  H  H38  1  0.031480  0.209989  0.473888  1
  H  H39  1  0.169259  0.495943  0.605503  1
  H  H40  1  0.577462  0.259453  0.063291  1
  H  H41  1  0.448637  0.366195  0.877722  1
  H  H42  1  0.341181  0.372730  0.621483  1
  H  H43  1  0.968520  0.709989  0.026112  1
  H  H44  1  0.112813  0.944286  0.191534  1
  H  H45  1  0.658819  0.872730  0.878517  1
  H  H46  1  0.311302  0.110975  0.413454  1
  H  H47  1  0.309499  0.258630  0.344593  1
  H  H48  1  0.551363  0.866195  0.622278  1
  H  H49  1  0.577462  0.240547  0.563291  1
  H  H50  1  0.830741  0.995943  0.894497  1
  H  H51  1  0.760649  0.824586  0.833718  1
  N  N52  1  0.667199  0.842716  0.645825  1
  N  N53  1  0.667199  0.657284  0.145825  1
  N  N54  1  0.332801  0.342716  0.854175  1
  N  N55  1  0.332801  0.157284  0.354175  1
  O  O56  1  0.066777  0.646505  0.064485  1
  O  O57  1  0.238759  0.407549  0.197052  1
  O  O58  1  0.219340  0.139155  0.085233  1
  O  O59  1  0.859683  0.082789  0.866317  1
  O  O60  1  0.690815  0.270504  0.648312  1
  O  O61  1  0.271984  0.825282  0.020699  1
  O  O62  1  0.507345  0.862330  0.301208  1
  O  O63  1  0.425539  0.601277  0.221664  1
  O  O64  1  0.574461  0.101277  0.278336  1
  O  O65  1  0.492655  0.362330  0.198792  1
  O  O66  1  0.728016  0.325282  0.479301  1
  O  O67  1  0.773102  0.974861  0.501313  1
  O  O68  1  0.926134  0.435200  0.711455  1
  O  O69  1  0.033838  0.687378  0.809672  1
  O  O70  1  0.780660  0.639155  0.414767  1
  O  O71  1  0.966162  0.187378  0.690328  1
  O  O72  1  0.073866  0.935200  0.788545  1
  O  O73  1  0.226898  0.474861  0.998687  1
  O  O74  1  0.761241  0.907549  0.302948  1
  O  O75  1  0.859683  0.417211  0.366317  1
  O  O76  1  0.690815  0.229496  0.148312  1
  O  O77  1  0.933223  0.146505  0.435515  1
  O  O78  1  0.066777  0.853495  0.564485  1
  O  O79  1  0.309185  0.770504  0.851688  1
  O  O80  1  0.140317  0.582789  0.633683  1
  O  O81  1  0.238759  0.092451  0.697052  1
  O  O82  1  0.773102  0.525139  0.001313  1
  O  O83  1  0.926134  0.064800  0.211455  1
  O  O84  1  0.033838  0.812622  0.309672  1
  O  O85  1  0.219340  0.360845  0.585233  1
  O  O86  1  0.966162  0.312622  0.190328  1
  O  O87  1  0.073866  0.564800  0.288545  1
  O  O88  1  0.226898  0.025139  0.498687  1
  O  O89  1  0.271984  0.674718  0.520699  1
  O  O90  1  0.507345  0.637670  0.801208  1
  O  O91  1  0.425539  0.898723  0.721664  1
  O  O92  1  0.574461  0.398723  0.778336  1
  O  O93  1  0.492655  0.137670  0.698792  1
  O  O94  1  0.728016  0.174718  0.979301  1
  O  O95  1  0.309185  0.729496  0.351688  1
  O  O96  1  0.140317  0.917211  0.133683  1
  O  O97  1  0.780660  0.860845  0.914767  1
  O  O98  1  0.761241  0.592451  0.802948  1
  O  O99  1  0.933223  0.353495  0.935515  1
