# generated using pymatgen
data_Mn3Ni2Te3O16
_symmetry_space_group_name_H-M   'P 1'
_cell_length_a   6.13562503
_cell_length_b   6.13562503
_cell_length_c   9.13999827
_cell_angle_alpha   88.93934805
_cell_angle_beta   91.06065195
_cell_angle_gamma   120.93696649
_symmetry_Int_Tables_number   1
_chemical_formula_structural   Mn3Ni2Te3O16
_chemical_formula_sum   'Mn3 Ni2 Te3 O16'
_cell_volume   295.06503450
_cell_formula_units_Z   1
loop_
 _symmetry_equiv_pos_site_id
 _symmetry_equiv_pos_as_xyz
  1  'x, y, z'
loop_
 _atom_site_type_symbol
 _atom_site_label
 _atom_site_symmetry_multiplicity
 _atom_site_fract_x
 _atom_site_fract_y
 _atom_site_fract_z
 _atom_site_occupancy
  Mn  Mn0  1  0.832325  0.167675  0.215138  1
  Mn  Mn1  1  0.165215  0.335421  0.710329  1
  Mn  Mn2  1  0.664579  0.834785  0.710329  1
  Ni  Ni3  1  0.674364  0.325636  0.509106  1
  Ni  Ni4  1  0.345096  0.654904  0.979131  1
  Te  Te5  1  0.333931  0.168188  0.212736  1
  Te  Te6  1  0.831812  0.666069  0.212736  1
  Te  Te7  1  0.166462  0.833538  0.712309  1
  O  O8  1  0.322897  0.155540  0.602697  1
  O  O9  1  0.518821  0.481179  0.338070  1
  O  O10  1  0.645416  0.354584  0.086788  1
  O  O11  1  0.017928  0.982072  0.331345  1
  O  O12  1  0.007862  0.992138  0.820913  1
  O  O13  1  0.844460  0.677103  0.602697  1
  O  O14  1  0.509585  0.041080  0.327621  1
  O  O15  1  0.958920  0.490415  0.327621  1
  O  O16  1  0.158902  0.841098  0.099893  1
  O  O17  1  0.843107  0.156893  0.607527  1
  O  O18  1  0.040437  0.520529  0.835252  1
  O  O19  1  0.479471  0.959563  0.835252  1
  O  O20  1  0.322615  0.677385  0.596124  1
  O  O21  1  0.168165  0.318300  0.109859  1
  O  O22  1  0.476189  0.523811  0.821554  1
  O  O23  1  0.681700  0.831835  0.109859  1
