# generated using pymatgen
data_Fe2O3
_symmetry_space_group_name_H-M   'P 1'
_cell_length_a   5.99034595
_cell_length_b   5.99034595
_cell_length_c   14.60922367
_cell_angle_alpha   89.55343642
_cell_angle_beta   90.44656358
_cell_angle_gamma   119.80649597
_symmetry_Int_Tables_number   1
_chemical_formula_structural   Fe2O3
_chemical_formula_sum   'Fe16 O24'
_cell_volume   454.87019191
_cell_formula_units_Z   8
loop_
 _symmetry_equiv_pos_site_id
 _symmetry_equiv_pos_as_xyz
  1  'x, y, z'
loop_
 _atom_site_type_symbol
 _atom_site_label
 _atom_site_symmetry_multiplicity
 _atom_site_fract_x
 _atom_site_fract_y
 _atom_site_fract_z
 _atom_site_occupancy
  Fe  Fe0  1  0.160236  0.839764  0.050468  1
  Fe  Fe1  1  0.507806  0.492194  0.010011  1
  Fe  Fe2  1  0.164864  0.333237  0.164443  1
  Fe  Fe3  1  0.493095  0.506905  0.363967  1
  Fe  Fe4  1  0.666763  0.835136  0.164443  1
  Fe  Fe5  1  0.826056  0.173944  0.321163  1
  Fe  Fe6  1  0.503563  0.002886  0.498572  1
  Fe  Fe7  1  0.997114  0.496437  0.498572  1
  Fe  Fe8  1  0.166380  0.833620  0.676230  1
  Fe  Fe9  1  0.840246  0.668839  0.834152  1
  Fe  Fe10  1  0.170556  0.829444  0.284254  1
  Fe  Fe11  1  0.331161  0.159754  0.834152  1
  Fe  Fe12  1  0.997437  0.002563  0.498583  1
  Fe  Fe13  1  0.501038  0.498962  0.627730  1
  Fe  Fe14  1  0.330748  0.669252  0.834601  1
  Fe  Fe15  1  0.839986  0.160014  0.960790  1
  O  O16  1  0.316436  0.186341  0.086082  1
  O  O17  1  0.813659  0.683564  0.086082  1
  O  O18  1  0.485527  0.514473  0.237295  1
  O  O19  1  0.342615  0.657385  0.088942  1
  O  O20  1  0.677466  0.854406  0.415335  1
  O  O21  1  0.989831  0.010169  0.243362  1
  O  O22  1  0.516777  0.980567  0.247513  1
  O  O23  1  0.848663  0.151337  0.091724  1
  O  O24  1  0.832624  0.167376  0.562421  1
  O  O25  1  0.145594  0.322534  0.415335  1
  O  O26  1  0.672685  0.327315  0.412013  1
  O  O27  1  0.019433  0.483223  0.247513  1
  O  O28  1  0.324438  0.675562  0.579147  1
  O  O29  1  0.017912  0.536256  0.758781  1
  O  O30  1  0.852137  0.675289  0.579148  1
  O  O31  1  0.166536  0.833464  0.421804  1
  O  O32  1  0.166680  0.833320  0.916950  1
  O  O33  1  0.463744  0.982088  0.758781  1
  O  O34  1  0.018086  0.981914  0.758421  1
  O  O35  1  0.324711  0.147863  0.579148  1
  O  O36  1  0.658678  0.341322  0.921474  1
  O  O37  1  0.500960  0.499040  0.759085  1
  O  O38  1  0.194198  0.346416  0.918256  1
  O  O39  1  0.653584  0.805802  0.918256  1
