# generated using pymatgen
data_Na3VO3
_symmetry_space_group_name_H-M   'P 1'
_cell_length_a   8.76571770
_cell_length_b   8.76571770
_cell_length_c   6.19709998
_cell_angle_alpha   70.24146863
_cell_angle_beta   109.75853137
_cell_angle_gamma   103.69238249
_symmetry_Int_Tables_number   1
_chemical_formula_structural   Na3VO3
_chemical_formula_sum   'Na12 V4 O12'
_cell_volume   417.70516663
_cell_formula_units_Z   4
loop_
 _symmetry_equiv_pos_site_id
 _symmetry_equiv_pos_as_xyz
  1  'x, y, z'
loop_
 _atom_site_type_symbol
 _atom_site_label
 _atom_site_symmetry_multiplicity
 _atom_site_fract_x
 _atom_site_fract_y
 _atom_site_fract_z
 _atom_site_occupancy
  Na  Na0  1  0.005553  0.823279  0.554133  1
  Na  Na1  1  0.176721  0.994447  0.054133  1
  Na  Na2  1  0.365114  0.767867  0.923844  1
  Na  Na3  1  0.232133  0.634886  0.423844  1
  Na  Na4  1  0.562148  0.562148  0.750000  1
  Na  Na5  1  0.280198  0.280198  0.750000  1
  Na  Na6  1  0.719802  0.719802  0.250000  1
  Na  Na7  1  0.437852  0.437852  0.250000  1
  Na  Na8  1  0.767867  0.365114  0.576156  1
  Na  Na9  1  0.634886  0.232133  0.076156  1
  Na  Na10  1  0.823279  0.005553  0.945867  1
  Na  Na11  1  0.994447  0.176721  0.445867  1
  V  V12  1  0.086126  0.424146  0.907126  1
  V  V13  1  0.575854  0.913874  0.407126  1
  V  V14  1  0.424146  0.086126  0.592874  1
  V  V15  1  0.913874  0.575854  0.092874  1
  O  O16  1  0.564629  0.906335  0.724771  1
  O  O17  1  0.289468  0.517667  0.837505  1
  O  O18  1  0.009566  0.227001  0.815253  1
  O  O19  1  0.093665  0.435371  0.224771  1
  O  O20  1  0.482333  0.710532  0.337505  1
  O  O21  1  0.772999  0.990434  0.315253  1
  O  O22  1  0.227001  0.009566  0.684747  1
  O  O23  1  0.517667  0.289468  0.662495  1
  O  O24  1  0.906335  0.564629  0.775229  1
  O  O25  1  0.990434  0.772999  0.184747  1
  O  O26  1  0.710532  0.482333  0.162495  1
  O  O27  1  0.435371  0.093665  0.275229  1
