# generated using pymatgen
data_Li4Nb2Cr3Co3O16
_symmetry_space_group_name_H-M   'P 1'
_cell_length_a   5.84577803
_cell_length_b   5.84577803
_cell_length_c   9.52398859
_cell_angle_alpha   89.40139123
_cell_angle_beta   90.59860877
_cell_angle_gamma   119.69120811
_symmetry_Int_Tables_number   1
_chemical_formula_structural   Li4Nb2Cr3Co3O16
_chemical_formula_sum   'Li4 Nb2 Cr3 Co3 O16'
_cell_volume   282.71274698
_cell_formula_units_Z   1
loop_
 _symmetry_equiv_pos_site_id
 _symmetry_equiv_pos_as_xyz
  1  'x, y, z'
loop_
 _atom_site_type_symbol
 _atom_site_label
 _atom_site_symmetry_multiplicity
 _atom_site_fract_x
 _atom_site_fract_y
 _atom_site_fract_z
 _atom_site_occupancy
  Li  Li0  1  0.329686  0.670314  0.896251  1
  Li  Li1  1  0.006245  0.993755  0.992630  1
  Li  Li2  1  0.005339  0.994661  0.496286  1
  Li  Li3  1  0.663834  0.336166  0.400382  1
  Nb  Nb4  1  0.332641  0.667359  0.496265  1
  Nb  Nb5  1  0.664432  0.335568  0.992758  1
  Cr  Cr6  1  0.660143  0.830446  0.215905  1
  Cr  Cr7  1  0.169554  0.339857  0.215905  1
  Cr  Cr8  1  0.830081  0.169919  0.715705  1
  Co  Co9  1  0.170553  0.829447  0.215514  1
  Co  Co10  1  0.830358  0.659021  0.714963  1
  Co  Co11  1  0.340979  0.169642  0.714963  1
  O  O12  1  0.669985  0.832043  0.594960  1
  O  O13  1  0.481313  0.518687  0.342777  1
  O  O14  1  0.329121  0.670879  0.107316  1
  O  O15  1  0.005099  0.994901  0.310413  1
  O  O16  1  0.006091  0.993909  0.807292  1
  O  O17  1  0.167957  0.330015  0.594960  1
  O  O18  1  0.474622  0.963895  0.339101  1
  O  O19  1  0.036105  0.525378  0.339101  1
  O  O20  1  0.834921  0.165079  0.089332  1
  O  O21  1  0.166754  0.833246  0.602597  1
  O  O22  1  0.961666  0.487288  0.838348  1
  O  O23  1  0.512712  0.038334  0.838348  1
  O  O24  1  0.660995  0.339005  0.610805  1
  O  O25  1  0.836613  0.667052  0.096535  1
  O  O26  1  0.519153  0.480847  0.831952  1
  O  O27  1  0.332948  0.163387  0.096535  1
