# generated using pymatgen
data_Li2AlFeO4
_symmetry_space_group_name_H-M   'P 1'
_cell_length_a   6.47952437
_cell_length_b   5.13735952
_cell_length_c   10.82700885
_cell_angle_alpha   90.00000000
_cell_angle_beta   90.04577755
_cell_angle_gamma   90.00000000
_symmetry_Int_Tables_number   1
_chemical_formula_structural   Li2AlFeO4
_chemical_formula_sum   'Li8 Al4 Fe4 O16'
_cell_volume   360.40552512
_cell_formula_units_Z   4
loop_
 _symmetry_equiv_pos_site_id
 _symmetry_equiv_pos_as_xyz
  1  'x, y, z'
loop_
 _atom_site_type_symbol
 _atom_site_label
 _atom_site_symmetry_multiplicity
 _atom_site_fract_x
 _atom_site_fract_y
 _atom_site_fract_z
 _atom_site_occupancy
  Li  Li0  1  0.999701  0.321555  0.416869  1
  Li  Li1  1  0.999701  0.178445  0.916869  1
  Li  Li2  1  0.755378  0.829821  0.335703  1
  Li  Li3  1  0.755378  0.670179  0.835703  1
  Li  Li4  1  0.244622  0.329821  0.164297  1
  Li  Li5  1  0.244622  0.170179  0.664297  1
  Li  Li6  1  0.000299  0.821555  0.083131  1
  Li  Li7  1  0.000299  0.678445  0.583131  1
  Al  Al8  1  0.499378  0.828142  0.090320  1
  Al  Al9  1  0.499378  0.671858  0.590320  1
  Al  Al10  1  0.500622  0.328142  0.409680  1
  Al  Al11  1  0.500622  0.171858  0.909680  1
  Fe  Fe12  1  0.761361  0.330315  0.166541  1
  Fe  Fe13  1  0.761361  0.169685  0.666541  1
  Fe  Fe14  1  0.238639  0.830315  0.333459  1
  Fe  Fe15  1  0.238639  0.669685  0.833459  1
  O  O16  1  0.993819  0.207496  0.096893  1
  O  O17  1  0.993819  0.292504  0.596893  1
  O  O18  1  0.725253  0.701418  0.155990  1
  O  O19  1  0.725253  0.798582  0.655990  1
  O  O20  1  0.724148  0.218360  0.335393  1
  O  O21  1  0.724148  0.281640  0.835393  1
  O  O22  1  0.513239  0.185757  0.078076  1
  O  O23  1  0.513239  0.314243  0.578076  1
  O  O24  1  0.486761  0.685757  0.421924  1
  O  O25  1  0.486761  0.814243  0.921924  1
  O  O26  1  0.275852  0.718360  0.164607  1
  O  O27  1  0.275852  0.781640  0.664607  1
  O  O28  1  0.274747  0.201418  0.344010  1
  O  O29  1  0.274747  0.298582  0.844010  1
  O  O30  1  0.006181  0.707496  0.403107  1
  O  O31  1  0.006181  0.792504  0.903107  1
