# generated using pymatgen
data_Li2(NiO2)3
_symmetry_space_group_name_H-M   'P 1'
_cell_length_a   4.96731034
_cell_length_b   4.96731034
_cell_length_c   5.12169150
_cell_angle_alpha   80.55898538
_cell_angle_beta   99.44101462
_cell_angle_gamma   60.06383712
_symmetry_Int_Tables_number   1
_chemical_formula_structural   Li2(NiO2)3
_chemical_formula_sum   'Li2 Ni3 O6'
_cell_volume   103.46405731
_cell_formula_units_Z   1
loop_
 _symmetry_equiv_pos_site_id
 _symmetry_equiv_pos_as_xyz
  1  'x, y, z'
loop_
 _atom_site_type_symbol
 _atom_site_label
 _atom_site_symmetry_multiplicity
 _atom_site_fract_x
 _atom_site_fract_y
 _atom_site_fract_z
 _atom_site_occupancy
  Li  Li0  1  0.670759  0.670759  0.000000  1
  Li  Li1  1  0.329241  0.329241  0.000000  1
  Ni  Ni2  1  0.835031  0.835031  0.500000  1
  Ni  Ni3  1  0.500000  0.500000  0.500000  1
  Ni  Ni4  1  0.164969  0.164969  0.500000  1
  O  O5  1  0.755128  0.244872  0.296710  1
  O  O6  1  0.447915  0.907976  0.284628  1
  O  O7  1  0.092024  0.552085  0.284628  1
  O  O8  1  0.907976  0.447915  0.715372  1
  O  O9  1  0.552085  0.092024  0.715372  1
  O  O10  1  0.244872  0.755128  0.703290  1
