# generated using pymatgen
data_Li3Co2(SiO4)2
_symmetry_space_group_name_H-M   'P 1'
_cell_length_a   5.24528297
_cell_length_b   5.25912772
_cell_length_c   6.40924982
_cell_angle_alpha   90.00549602
_cell_angle_beta   90.58711052
_cell_angle_gamma   91.31977408
_symmetry_Int_Tables_number   1
_chemical_formula_structural   Li3Co2(SiO4)2
_chemical_formula_sum   'Li3 Co2 Si2 O8'
_cell_volume   176.74689402
_cell_formula_units_Z   1
loop_
 _symmetry_equiv_pos_site_id
 _symmetry_equiv_pos_as_xyz
  1  'x, y, z'
loop_
 _atom_site_type_symbol
 _atom_site_label
 _atom_site_symmetry_multiplicity
 _atom_site_fract_x
 _atom_site_fract_y
 _atom_site_fract_z
 _atom_site_occupancy
  Li  Li0  1  0.187114  0.817306  0.753150  1
  Li  Li1  1  0.687749  0.678104  0.504847  1
  Li  Li2  1  0.809978  0.190337  0.249440  1
  Co  Co3  1  0.179914  0.823202  0.242886  1
  Co  Co4  1  0.821082  0.187092  0.757973  1
  Si  Si5  1  0.679858  0.673637  0.001793  1
  Si  Si6  1  0.319262  0.313140  0.496176  1
  O  O7  1  0.797727  0.803060  0.788106  1
  O  O8  1  0.816339  0.799303  0.218917  1
  O  O9  1  0.373200  0.743032  0.014609  1
  O  O10  1  0.272919  0.628922  0.480508  1
  O  O11  1  0.725048  0.370539  0.004278  1
  O  O12  1  0.632727  0.295221  0.501398  1
  O  O13  1  0.187504  0.187651  0.699789  1
  O  O14  1  0.194066  0.173941  0.286133  1
