# generated using pymatgen
data_Li2Cr3NiO8
_symmetry_space_group_name_H-M   'P 1'
_cell_length_a   5.82798069
_cell_length_b   5.82798069
_cell_length_c   9.63609509
_cell_angle_alpha   90.00000000
_cell_angle_beta   90.00000000
_cell_angle_gamma   120.00000000
_symmetry_Int_Tables_number   1
_chemical_formula_structural   Li2Cr3NiO8
_chemical_formula_sum   'Li4 Cr6 Ni2 O16'
_cell_volume   283.44442362
_cell_formula_units_Z   2
loop_
 _symmetry_equiv_pos_site_id
 _symmetry_equiv_pos_as_xyz
  1  'x, y, z'
loop_
 _atom_site_type_symbol
 _atom_site_label
 _atom_site_symmetry_multiplicity
 _atom_site_fract_x
 _atom_site_fract_y
 _atom_site_fract_z
 _atom_site_occupancy
  Li  Li0  1  0.333333  0.666667  0.893587  1
  Li  Li1  1  0.000000  0.000000  0.997886  1
  Li  Li2  1  0.000000  0.000000  0.497886  1
  Li  Li3  1  0.666667  0.333333  0.393587  1
  Cr  Cr4  1  0.168615  0.831385  0.213816  1
  Cr  Cr5  1  0.168615  0.337229  0.213816  1
  Cr  Cr6  1  0.662771  0.831385  0.213816  1
  Cr  Cr7  1  0.337229  0.168615  0.713816  1
  Cr  Cr8  1  0.831385  0.662771  0.713816  1
  Cr  Cr9  1  0.831385  0.168615  0.713816  1
  Ni  Ni10  1  0.333333  0.666667  0.490007  1
  Ni  Ni11  1  0.666667  0.333333  0.990007  1
  O  O12  1  0.159671  0.840329  0.610273  1
  O  O13  1  0.038254  0.519127  0.327431  1
  O  O14  1  0.333333  0.666667  0.102643  1
  O  O15  1  0.000000  0.000000  0.315334  1
  O  O16  1  0.000000  0.000000  0.815334  1
  O  O17  1  0.159671  0.319341  0.610273  1
  O  O18  1  0.480873  0.961746  0.327431  1
  O  O19  1  0.480873  0.519127  0.327431  1
  O  O20  1  0.319341  0.159671  0.110273  1
  O  O21  1  0.680659  0.840329  0.610273  1
  O  O22  1  0.519127  0.480873  0.827431  1
  O  O23  1  0.519127  0.038254  0.827431  1
  O  O24  1  0.666667  0.333333  0.602643  1
  O  O25  1  0.840329  0.680659  0.110273  1
  O  O26  1  0.961746  0.480873  0.827431  1
  O  O27  1  0.840329  0.159671  0.110273  1
