# generated using pymatgen
data_HgPtO2
_symmetry_space_group_name_H-M   'P 1'
_cell_length_a   7.96125101
_cell_length_b   7.96125101
_cell_length_c   7.96125101
_cell_angle_alpha   23.19899587
_cell_angle_beta   23.19899587
_cell_angle_gamma   23.19899587
_symmetry_Int_Tables_number   1
_chemical_formula_structural   HgPtO2
_chemical_formula_sum   'Hg1 Pt1 O2'
_cell_volume   68.73747930
_cell_formula_units_Z   1
loop_
 _symmetry_equiv_pos_site_id
 _symmetry_equiv_pos_as_xyz
  1  'x, y, z'
loop_
 _atom_site_type_symbol
 _atom_site_label
 _atom_site_symmetry_multiplicity
 _atom_site_fract_x
 _atom_site_fract_y
 _atom_site_fract_z
 _atom_site_occupancy
  Hg  Hg0  1  0.000000  0.000000  0.000000  1
  Pt  Pt1  1  0.500000  0.500000  0.500000  1
  O  O2  1  0.125794  0.125794  0.125794  1
  O  O3  1  0.874206  0.874206  0.874206  1
