# generated using pymatgen
data_NaSr9Fe5(MoO6)5
_symmetry_space_group_name_H-M   'P 1'
_cell_length_a   20.57466785
_cell_length_b   20.57466785
_cell_length_c   5.63027624
_cell_angle_alpha   82.13226905
_cell_angle_beta   97.86773095
_cell_angle_gamma   22.32605300
_symmetry_Int_Tables_number   1
_chemical_formula_structural   NaSr9Fe5(MoO6)5
_chemical_formula_sum   'Na1 Sr9 Fe5 Mo5 O30'
_cell_volume   640.25836723
_cell_formula_units_Z   1
loop_
 _symmetry_equiv_pos_site_id
 _symmetry_equiv_pos_as_xyz
  1  'x, y, z'
loop_
 _atom_site_type_symbol
 _atom_site_label
 _atom_site_symmetry_multiplicity
 _atom_site_fract_x
 _atom_site_fract_y
 _atom_site_fract_z
 _atom_site_occupancy
  Na  Na0  1  0.449236  0.449236  0.500000  1
  Sr  Sr1  1  0.948488  0.948488  0.500000  1
  Sr  Sr2  1  0.351321  0.351321  0.500000  1
  Sr  Sr3  1  0.750378  0.750378  0.500000  1
  Sr  Sr4  1  0.850549  0.850549  0.500000  1
  Sr  Sr5  1  0.150090  0.150090  0.500000  1
  Sr  Sr6  1  0.250428  0.250428  0.500000  1
  Sr  Sr7  1  0.549549  0.549549  0.500000  1
  Sr  Sr8  1  0.650023  0.650023  0.500000  1
  Sr  Sr9  1  0.049640  0.049640  0.500000  1
  Fe  Fe10  1  0.402436  0.402436  0.000000  1
  Fe  Fe11  1  0.499097  0.499097  0.000000  1
  Fe  Fe12  1  0.799737  0.799737  0.000000  1
  Fe  Fe13  1  0.200665  0.200665  0.000000  1
  Fe  Fe14  1  0.598363  0.598363  0.000000  1
  Mo  Mo15  1  0.899032  0.899032  0.000000  1
  Mo  Mo16  1  0.300791  0.300791  0.000000  1
  Mo  Mo17  1  0.699531  0.699531  0.000000  1
  Mo  Mo18  1  0.998878  0.998878  0.000000  1
  Mo  Mo19  1  0.100654  0.100654  0.000000  1
  O  O20  1  0.451109  0.451109  0.000000  1
  O  O21  1  0.679823  0.118781  0.496509  1
  O  O22  1  0.165448  0.636151  0.050736  1
  O  O23  1  0.849959  0.849959  0.000000  1
  O  O24  1  0.951501  0.951501  0.000000  1
  O  O25  1  0.636151  0.165448  0.949264  1
  O  O26  1  0.086878  0.513210  0.515723  1
  O  O27  1  0.118781  0.679823  0.503491  1
  O  O28  1  0.582765  0.017538  0.060448  1
  O  O29  1  0.249949  0.249949  0.000000  1
  O  O30  1  0.350589  0.350589  0.000000  1
  O  O31  1  0.017538  0.582765  0.939552  1
  O  O32  1  0.477391  0.921872  0.495364  1
  O  O33  1  0.513210  0.086878  0.484277  1
  O  O34  1  0.970982  0.428484  0.058448  1
  O  O35  1  0.649373  0.649373  0.000000  1
  O  O36  1  0.749982  0.749982  0.000000  1
  O  O37  1  0.428484  0.970982  0.941552  1
  O  O38  1  0.886465  0.312011  0.518181  1
  O  O39  1  0.921872  0.477391  0.504636  1
  O  O40  1  0.381949  0.817833  0.061895  1
  O  O41  1  0.048943  0.048943  0.000000  1
  O  O42  1  0.149952  0.149952  0.000000  1
  O  O43  1  0.817833  0.381949  0.938105  1
  O  O44  1  0.265739  0.736313  0.480484  1
  O  O45  1  0.312011  0.886465  0.481819  1
  O  O46  1  0.788596  0.212518  0.058626  1
  O  O47  1  0.549123  0.549123  0.000000  1
  O  O48  1  0.212518  0.788596  0.941374  1
  O  O49  1  0.736313  0.265739  0.519516  1
