# generated using pymatgen
data_Li2Ti4Ni(PO5)4
_symmetry_space_group_name_H-M   'P 1'
_cell_length_a   6.46792210
_cell_length_b   7.31638094
_cell_length_c   7.42793550
_cell_angle_alpha   90.19003736
_cell_angle_beta   90.26865056
_cell_angle_gamma   90.75905068
_symmetry_Int_Tables_number   1
_chemical_formula_structural   Li2Ti4Ni(PO5)4
_chemical_formula_sum   'Li2 Ti4 Ni1 P4 O20'
_cell_volume   351.46642859
_cell_formula_units_Z   1
loop_
 _symmetry_equiv_pos_site_id
 _symmetry_equiv_pos_as_xyz
  1  'x, y, z'
loop_
 _atom_site_type_symbol
 _atom_site_label
 _atom_site_symmetry_multiplicity
 _atom_site_fract_x
 _atom_site_fract_y
 _atom_site_fract_z
 _atom_site_occupancy
  Li  Li0  1  0.000000  0.000000  0.000000  1
  Li  Li1  1  0.500000  0.000000  0.000000  1
  Ti  Ti2  1  0.235585  0.773658  0.659585  1
  Ti  Ti3  1  0.250614  0.719434  0.159811  1
  Ti  Ti4  1  0.749386  0.280566  0.840189  1
  Ti  Ti5  1  0.764415  0.226342  0.340415  1
  Ni  Ni6  1  0.500000  0.500000  0.500000  1
  P  P7  1  0.254175  0.368757  0.871626  1
  P  P8  1  0.250315  0.125425  0.372602  1
  P  P9  1  0.749685  0.874575  0.627398  1
  P  P10  1  0.745825  0.631243  0.128374  1
  O  O11  1  0.056151  0.249115  0.861863  1
  O  O12  1  0.058117  0.247306  0.370620  1
  O  O13  1  0.250921  0.009831  0.545864  1
  O  O14  1  0.247674  0.485884  0.045237  1
  O  O15  1  0.244786  0.836469  0.885599  1
  O  O16  1  0.278611  0.656408  0.384391  1
  O  O17  1  0.272135  0.495577  0.704430  1
  O  O18  1  0.251408  0.000124  0.202615  1
  O  O19  1  0.441877  0.241599  0.879638  1
  O  O20  1  0.441838  0.253956  0.368868  1
  O  O21  1  0.558162  0.746044  0.631132  1
  O  O22  1  0.558123  0.758401  0.120362  1
  O  O23  1  0.748592  0.999876  0.797385  1
  O  O24  1  0.727865  0.504423  0.295570  1
  O  O25  1  0.721389  0.343592  0.615609  1
  O  O26  1  0.755214  0.163531  0.114401  1
  O  O27  1  0.752326  0.514116  0.954763  1
  O  O28  1  0.749079  0.990169  0.454136  1
  O  O29  1  0.941883  0.752694  0.629380  1
  O  O30  1  0.943849  0.750885  0.138137  1
