# generated using pymatgen
data_LiCu(HO)4
_symmetry_space_group_name_H-M   'P 1'
_cell_length_a   6.26120660
_cell_length_b   6.65424473
_cell_length_c   8.45149476
_cell_angle_alpha   90.00000000
_cell_angle_beta   90.00000000
_cell_angle_gamma   90.00000000
_symmetry_Int_Tables_number   1
_chemical_formula_structural   LiCu(HO)4
_chemical_formula_sum   'Li4 Cu4 H16 O16'
_cell_volume   352.11970572
_cell_formula_units_Z   4
loop_
 _symmetry_equiv_pos_site_id
 _symmetry_equiv_pos_as_xyz
  1  'x, y, z'
loop_
 _atom_site_type_symbol
 _atom_site_label
 _atom_site_symmetry_multiplicity
 _atom_site_fract_x
 _atom_site_fract_y
 _atom_site_fract_z
 _atom_site_occupancy
  Li  Li0  1  0.026616  0.844325  0.747548  1
  Li  Li1  1  0.473384  0.344325  0.247548  1
  Li  Li2  1  0.526616  0.655675  0.747548  1
  Li  Li3  1  0.973384  0.155675  0.247548  1
  Cu  Cu4  1  0.224694  0.508733  0.503314  1
  Cu  Cu5  1  0.275306  0.008733  0.003314  1
  Cu  Cu6  1  0.724694  0.991267  0.503314  1
  Cu  Cu7  1  0.775306  0.491267  0.003314  1
  H  H8  1  0.026653  0.172282  0.562809  1
  H  H9  1  0.993781  0.236218  0.928355  1
  H  H10  1  0.101403  0.528003  0.238582  1
  H  H11  1  0.251898  0.344284  0.745431  1
  H  H12  1  0.248102  0.844284  0.245431  1
  H  H13  1  0.398597  0.028003  0.738582  1
  H  H14  1  0.506219  0.736218  0.428355  1
  H  H15  1  0.473347  0.672282  0.062809  1
  H  H16  1  0.526653  0.327718  0.562809  1
  H  H17  1  0.493781  0.263782  0.928355  1
  H  H18  1  0.601403  0.971997  0.238582  1
  H  H19  1  0.751898  0.155716  0.745431  1
  H  H20  1  0.748102  0.655716  0.245431  1
  H  H21  1  0.898597  0.471997  0.738582  1
  H  H22  1  0.006219  0.763782  0.428355  1
  H  H23  1  0.973347  0.827718  0.062809  1
  O  O24  1  0.023389  0.706035  0.533243  1
  O  O25  1  0.078729  0.804039  0.979350  1
  O  O26  1  0.238458  0.489174  0.720135  1
  O  O27  1  0.242451  0.555370  0.285745  1
  O  O28  1  0.257549  0.055370  0.785745  1
  O  O29  1  0.261542  0.989174  0.220135  1
  O  O30  1  0.421271  0.304039  0.479350  1
  O  O31  1  0.476611  0.206035  0.033243  1
  O  O32  1  0.523389  0.793965  0.533243  1
  O  O33  1  0.578729  0.695961  0.979350  1
  O  O34  1  0.738458  0.010826  0.720135  1
  O  O35  1  0.742451  0.944630  0.285745  1
  O  O36  1  0.757549  0.444630  0.785745  1
  O  O37  1  0.761542  0.510826  0.220135  1
  O  O38  1  0.921271  0.195961  0.479350  1
  O  O39  1  0.976611  0.293965  0.033243  1
