# generated using pymatgen
data_NaCa3Fe4(SiO3)8
_symmetry_space_group_name_H-M   'P 1'
_cell_length_a   7.65577308
_cell_length_b   7.65577308
_cell_length_c   10.80381025
_cell_angle_alpha   66.37222962
_cell_angle_beta   113.62777038
_cell_angle_gamma   102.83159563
_symmetry_Int_Tables_number   1
_chemical_formula_structural   NaCa3Fe4(SiO3)8
_chemical_formula_sum   'Na1 Ca3 Fe4 Si8 O24'
_cell_volume   530.07682778
_cell_formula_units_Z   1
loop_
 _symmetry_equiv_pos_site_id
 _symmetry_equiv_pos_as_xyz
  1  'x, y, z'
loop_
 _atom_site_type_symbol
 _atom_site_label
 _atom_site_symmetry_multiplicity
 _atom_site_fract_x
 _atom_site_fract_y
 _atom_site_fract_z
 _atom_site_occupancy
  Na  Na0  1  0.658178  0.658178  0.500000  1
  Ca  Ca1  1  0.126882  0.126882  0.000000  1
  Ca  Ca2  1  0.363277  0.868708  0.738700  1
  Ca  Ca3  1  0.868708  0.363277  0.261300  1
  Fe  Fe4  1  0.738884  0.738884  0.000000  1
  Fe  Fe5  1  0.762539  0.273708  0.736594  1
  Fe  Fe6  1  0.299666  0.299666  0.500000  1
  Fe  Fe7  1  0.273708  0.762539  0.263406  1
  Si  Si8  1  0.625745  0.156902  0.491394  1
  Si  Si9  1  0.335773  0.372860  0.248268  1
  Si  Si10  1  0.116207  0.658462  0.999764  1
  Si  Si11  1  0.156902  0.625745  0.508606  1
  Si  Si12  1  0.837426  0.877431  0.743447  1
  Si  Si13  1  0.877431  0.837426  0.256553  1
  Si  Si14  1  0.658462  0.116207  0.000236  1
  Si  Si15  1  0.372860  0.335773  0.751732  1
  O  O16  1  0.917402  0.048616  0.810052  1
  O  O17  1  0.452663  0.089627  0.557461  1
  O  O18  1  0.520369  0.234859  0.307492  1
  O  O19  1  0.754186  0.658031  0.208545  1
  O  O20  1  0.411282  0.523123  0.336281  1
  O  O21  1  0.658031  0.754186  0.791455  1
  O  O22  1  0.257836  0.471925  0.068017  1
  O  O23  1  0.234859  0.520369  0.692508  1
  O  O24  1  0.832813  0.245024  0.946981  1
  O  O25  1  0.946451  0.572983  0.066394  1
  O  O26  1  0.754417  0.333469  0.536812  1
  O  O27  1  0.025123  0.736666  0.816364  1
  O  O28  1  0.968831  0.760025  0.440016  1
  O  O29  1  0.250386  0.161245  0.693161  1
  O  O30  1  0.048616  0.917402  0.189948  1
  O  O31  1  0.161245  0.250386  0.306839  1
  O  O32  1  0.760025  0.968831  0.559984  1
  O  O33  1  0.736666  0.025123  0.183636  1
  O  O34  1  0.333469  0.754417  0.463188  1
  O  O35  1  0.572983  0.946451  0.933606  1
  O  O36  1  0.245024  0.832813  0.053019  1
  O  O37  1  0.471925  0.257836  0.931983  1
  O  O38  1  0.523123  0.411282  0.663719  1
  O  O39  1  0.089627  0.452663  0.442539  1
