# generated using pymatgen
data_LiVOF3
_symmetry_space_group_name_H-M   'P 1'
_cell_length_a   7.02492873
_cell_length_b   7.02492873
_cell_length_c   4.72606217
_cell_angle_alpha   70.86730047
_cell_angle_beta   109.13269953
_cell_angle_gamma   140.66115133
_symmetry_Int_Tables_number   1
_chemical_formula_structural   LiVOF3
_chemical_formula_sum   'Li2 V2 O2 F6'
_cell_volume   138.60056706
_cell_formula_units_Z   2
loop_
 _symmetry_equiv_pos_site_id
 _symmetry_equiv_pos_as_xyz
  1  'x, y, z'
loop_
 _atom_site_type_symbol
 _atom_site_label
 _atom_site_symmetry_multiplicity
 _atom_site_fract_x
 _atom_site_fract_y
 _atom_site_fract_z
 _atom_site_occupancy
  Li  Li0  1  0.747143  0.747143  0.000000  1
  Li  Li1  1  0.251225  0.251225  0.500000  1
  V  V2  1  0.967994  0.582640  0.716893  1
  V  V3  1  0.582640  0.967994  0.283107  1
  O  O4  1  0.230255  0.830441  0.975661  1
  O  O5  1  0.830441  0.230255  0.024339  1
  F  F6  1  0.626255  0.466730  0.782131  1
  F  F7  1  0.029935  0.868505  0.372217  1
  F  F8  1  0.661436  0.266605  0.426049  1
  F  F9  1  0.466730  0.626255  0.217869  1
  F  F10  1  0.266605  0.661436  0.573951  1
  F  F11  1  0.868505  0.029935  0.627783  1
