# generated using pymatgen
data_FeOF
_symmetry_space_group_name_H-M   'P 1'
_cell_length_a   3.09531315
_cell_length_b   6.69171987
_cell_length_c   6.69499007
_cell_angle_alpha   90.00000000
_cell_angle_beta   90.00000000
_cell_angle_gamma   90.00000000
_symmetry_Int_Tables_number   1
_chemical_formula_structural   FeOF
_chemical_formula_sum   'Fe4 O4 F4'
_cell_volume   138.67311860
_cell_formula_units_Z   4
loop_
 _symmetry_equiv_pos_site_id
 _symmetry_equiv_pos_as_xyz
  1  'x, y, z'
loop_
 _atom_site_type_symbol
 _atom_site_label
 _atom_site_symmetry_multiplicity
 _atom_site_fract_x
 _atom_site_fract_y
 _atom_site_fract_z
 _atom_site_occupancy
  Fe  Fe0  1  0.000000  0.016704  0.728201  1
  Fe  Fe1  1  0.000000  0.516704  0.271799  1
  Fe  Fe2  1  0.500000  0.477682  0.736104  1
  Fe  Fe3  1  0.500000  0.977682  0.263896  1
  O  O4  1  0.500000  0.500607  0.445726  1
  O  O5  1  0.000000  0.306195  0.759224  1
  O  O6  1  0.000000  0.806195  0.240776  1
  O  O7  1  0.500000  0.000607  0.554274  1
  F  F8  1  0.500000  0.000866  0.945489  1
  F  F9  1  0.000000  0.697945  0.758858  1
  F  F10  1  0.000000  0.197945  0.241142  1
  F  F11  1  0.500000  0.500866  0.054511  1
