# generated using pymatgen
data_Na7Mn10O24
_symmetry_space_group_name_H-M   'P 1'
_cell_length_a   6.11208189
_cell_length_b   6.11208189
_cell_length_c   15.35986518
_cell_angle_alpha   87.88175565
_cell_angle_beta   92.11824435
_cell_angle_gamma   121.49008486
_symmetry_Int_Tables_number   1
_chemical_formula_structural   Na7Mn10O24
_chemical_formula_sum   'Na7 Mn10 O24'
_cell_volume   488.86334083
_cell_formula_units_Z   1
loop_
 _symmetry_equiv_pos_site_id
 _symmetry_equiv_pos_as_xyz
  1  'x, y, z'
loop_
 _atom_site_type_symbol
 _atom_site_label
 _atom_site_symmetry_multiplicity
 _atom_site_fract_x
 _atom_site_fract_y
 _atom_site_fract_z
 _atom_site_occupancy
  Na  Na0  1  0.160365  0.839635  0.712392  1
  Na  Na1  1  0.833223  0.166777  0.667682  1
  Na  Na2  1  0.490834  0.509166  0.368806  1
  Na  Na3  1  0.506788  0.493212  0.627860  1
  Na  Na4  1  0.330875  0.669125  0.161013  1
  Na  Na5  1  0.835216  0.164784  0.043865  1
  Na  Na6  1  0.828929  0.171071  0.285510  1
  Mn  Mn7  1  0.513196  0.486804  0.000513  1
  Mn  Mn8  1  0.671459  0.834881  0.843417  1
  Mn  Mn9  1  0.997099  0.002901  0.491787  1
  Mn  Mn10  1  0.671199  0.328801  0.842996  1
  Mn  Mn11  1  0.996989  0.497723  0.491072  1
  Mn  Mn12  1  0.502277  0.003011  0.491072  1
  Mn  Mn13  1  0.165119  0.328541  0.843417  1
  Mn  Mn14  1  0.156098  0.843902  0.328284  1
  Mn  Mn15  1  0.334804  0.171695  0.166848  1
  Mn  Mn16  1  0.828305  0.665196  0.166848  1
  O  O17  1  0.789786  0.634068  0.916462  1
  O  O18  1  0.369400  0.630600  0.919482  1
  O  O19  1  0.981443  0.018557  0.780085  1
  O  O20  1  0.838499  0.161501  0.905379  1
  O  O21  1  0.301099  0.118163  0.418738  1
  O  O22  1  0.532912  0.014269  0.780445  1
  O  O23  1  0.985731  0.467088  0.780445  1
  O  O24  1  0.137797  0.319205  0.552357  1
  O  O25  1  0.365932  0.210214  0.916462  1
  O  O26  1  0.684976  0.315024  0.552702  1
  O  O27  1  0.829762  0.170238  0.427482  1
  O  O28  1  0.498690  0.501310  0.778110  1
  O  O29  1  0.298653  0.701347  0.415169  1
  O  O30  1  0.169688  0.830312  0.556773  1
  O  O31  1  0.517625  0.482375  0.228388  1
  O  O32  1  0.881837  0.698901  0.418738  1
  O  O33  1  0.675473  0.767951  0.078422  1
  O  O34  1  0.433488  0.004632  0.254685  1
  O  O35  1  0.995368  0.566512  0.254685  1
  O  O36  1  0.680795  0.862203  0.552357  1
  O  O37  1  0.015839  0.984161  0.239206  1
  O  O38  1  0.140319  0.859681  0.103912  1
  O  O39  1  0.652545  0.347455  0.099516  1
  O  O40  1  0.232049  0.324527  0.078422  1
