# generated using pymatgen
data_LiCuPO4
_symmetry_space_group_name_H-M   'P 1'
_cell_length_a   10.81087168
_cell_length_b   10.81087168
_cell_length_c   11.16393590
_cell_angle_alpha   90.00000000
_cell_angle_beta   90.00000000
_cell_angle_gamma   120.00000000
_symmetry_Int_Tables_number   1
_chemical_formula_structural   LiCuPO4
_chemical_formula_sum   'Li12 Cu12 P12 O48'
_cell_volume   1129.97644593
_cell_formula_units_Z   12
loop_
 _symmetry_equiv_pos_site_id
 _symmetry_equiv_pos_as_xyz
  1  'x, y, z'
loop_
 _atom_site_type_symbol
 _atom_site_label
 _atom_site_symmetry_multiplicity
 _atom_site_fract_x
 _atom_site_fract_y
 _atom_site_fract_z
 _atom_site_occupancy
  Li  Li0  1  0.000000  0.500000  0.014269  1
  Li  Li1  1  0.000000  0.500000  0.652398  1
  Li  Li2  1  0.000000  0.500000  0.333333  1
  Li  Li3  1  0.000000  0.000000  0.166667  1
  Li  Li4  1  0.000000  0.000000  0.500000  1
  Li  Li5  1  0.000000  0.000000  0.833333  1
  Li  Li6  1  0.500000  0.500000  0.347602  1
  Li  Li7  1  0.500000  0.500000  0.666667  1
  Li  Li8  1  0.500000  0.500000  0.985731  1
  Li  Li9  1  0.500000  0.000000  0.319065  1
  Li  Li10  1  0.500000  0.000000  0.000000  1
  Li  Li11  1  0.500000  0.000000  0.680935  1
  Cu  Cu12  1  0.000000  0.765172  0.333333  1
  Cu  Cu13  1  0.246686  0.753314  0.666667  1
  Cu  Cu14  1  0.000000  0.234828  0.333333  1
  Cu  Cu15  1  0.246686  0.493372  0.000000  1
  Cu  Cu16  1  0.234828  0.234828  0.666667  1
  Cu  Cu17  1  0.506628  0.753314  0.333333  1
  Cu  Cu18  1  0.234828  0.000000  0.000000  1
  Cu  Cu19  1  0.493372  0.246686  0.333333  1
  Cu  Cu20  1  0.765172  0.765172  0.666667  1
  Cu  Cu21  1  0.753314  0.506628  0.000000  1
  Cu  Cu22  1  0.753314  0.246686  0.666667  1
  Cu  Cu23  1  0.765172  0.000000  0.000000  1
  P  P24  1  0.000000  0.740810  0.833333  1
  P  P25  1  0.000000  0.259190  0.833333  1
  P  P26  1  0.250139  0.749861  0.166667  1
  P  P27  1  0.250139  0.500278  0.500000  1
  P  P28  1  0.499722  0.749861  0.833333  1
  P  P29  1  0.259190  0.259190  0.166667  1
  P  P30  1  0.259190  0.000000  0.500000  1
  P  P31  1  0.740810  0.740810  0.166667  1
  P  P32  1  0.500278  0.250139  0.833333  1
  P  P33  1  0.749861  0.499722  0.500000  1
  P  P34  1  0.749861  0.250139  0.166667  1
  P  P35  1  0.740810  0.000000  0.500000  1
  O  O36  1  0.105490  0.881781  0.463182  1
  O  O37  1  0.118219  0.894510  0.870151  1
  O  O38  1  0.049645  0.681885  0.729501  1
  O  O39  1  0.121608  0.705249  0.250869  1
  O  O40  1  0.294751  0.878392  0.082464  1
  O  O41  1  0.318115  0.950355  0.603832  1
  O  O42  1  0.197573  0.586772  0.574619  1
  O  O43  1  0.049645  0.367761  0.937166  1
  O  O44  1  0.197573  0.610801  0.092048  1
  O  O45  1  0.121608  0.416359  0.415797  1
  O  O46  1  0.105490  0.223709  0.203485  1
  O  O47  1  0.413228  0.802427  0.758715  1
  O  O48  1  0.389199  0.802427  0.241285  1
  O  O49  1  0.118219  0.223709  0.796515  1
  O  O50  1  0.294751  0.416359  0.584203  1
  O  O51  1  0.413228  0.610801  0.907952  1
  O  O52  1  0.318115  0.367761  0.062834  1
  O  O53  1  0.389199  0.586772  0.425381  1
  O  O54  1  0.223709  0.118219  0.536818  1
  O  O55  1  0.223709  0.105490  0.129849  1
  O  O56  1  0.632239  0.950355  0.396168  1
  O  O57  1  0.583641  0.878392  0.917536  1
  O  O58  1  0.583641  0.705249  0.749131  1
  O  O59  1  0.367761  0.318115  0.270499  1
  O  O60  1  0.632239  0.681885  0.270499  1
  O  O61  1  0.416359  0.294751  0.749131  1
  O  O62  1  0.416359  0.121608  0.917536  1
  O  O63  1  0.367761  0.049645  0.396168  1
  O  O64  1  0.776291  0.894510  0.129849  1
  O  O65  1  0.776291  0.881781  0.536818  1
  O  O66  1  0.610801  0.413228  0.425381  1
  O  O67  1  0.681885  0.632239  0.062834  1
  O  O68  1  0.586772  0.389199  0.907952  1
  O  O69  1  0.705249  0.583641  0.584203  1
  O  O70  1  0.881781  0.776291  0.796515  1
  O  O71  1  0.610801  0.197573  0.241285  1
  O  O72  1  0.586772  0.197573  0.758715  1
  O  O73  1  0.894510  0.776291  0.203485  1
  O  O74  1  0.878392  0.583641  0.415797  1
  O  O75  1  0.802427  0.389199  0.092048  1
  O  O76  1  0.950355  0.632239  0.937166  1
  O  O77  1  0.802427  0.413228  0.574619  1
  O  O78  1  0.681885  0.049645  0.603832  1
  O  O79  1  0.705249  0.121608  0.082464  1
  O  O80  1  0.878392  0.294751  0.250869  1
  O  O81  1  0.950355  0.318115  0.729501  1
  O  O82  1  0.881781  0.105490  0.870151  1
  O  O83  1  0.894510  0.118219  0.463182  1
