# generated using pymatgen
data_Li3Fe2(SiO4)2
_symmetry_space_group_name_H-M   'P 1'
_cell_length_a   5.06885157
_cell_length_b   11.08150924
_cell_length_c   6.18676291
_cell_angle_alpha   90.00000000
_cell_angle_beta   90.08529114
_cell_angle_gamma   90.00000000
_symmetry_Int_Tables_number   1
_chemical_formula_structural   Li3Fe2(SiO4)2
_chemical_formula_sum   'Li6 Fe4 Si4 O16'
_cell_volume   347.51333832
_cell_formula_units_Z   2
loop_
 _symmetry_equiv_pos_site_id
 _symmetry_equiv_pos_as_xyz
  1  'x, y, z'
loop_
 _atom_site_type_symbol
 _atom_site_label
 _atom_site_symmetry_multiplicity
 _atom_site_fract_x
 _atom_site_fract_y
 _atom_site_fract_z
 _atom_site_occupancy
  Li  Li0  1  0.569914  0.087634  0.239615  1
  Li  Li1  1  0.430086  0.587634  0.760385  1
  Li  Li2  1  0.918930  0.920753  0.753482  1
  Li  Li3  1  0.063682  0.414638  0.752132  1
  Li  Li4  1  0.081070  0.420753  0.246518  1
  Li  Li5  1  0.936318  0.914638  0.247868  1
  Fe  Fe6  1  0.088684  0.164529  0.982984  1
  Fe  Fe7  1  0.911316  0.664529  0.017016  1
  Fe  Fe8  1  0.569588  0.329036  0.498549  1
  Fe  Fe9  1  0.430412  0.829036  0.501451  1
  Si  Si10  1  0.414316  0.834074  0.996111  1
  Si  Si11  1  0.585684  0.334074  0.003889  1
  Si  Si12  1  0.929528  0.660885  0.506982  1
  Si  Si13  1  0.070472  0.160885  0.493018  1
  O  O14  1  0.526262  0.903619  0.224533  1
  O  O15  1  0.475515  0.401317  0.228476  1
  O  O16  1  0.909534  0.339367  0.001966  1
  O  O17  1  0.090466  0.839367  0.998034  1
  O  O18  1  0.524120  0.696220  0.993746  1
  O  O19  1  0.475880  0.196220  0.006254  1
  O  O20  1  0.524485  0.901317  0.771524  1
  O  O21  1  0.473738  0.403619  0.775467  1
  O  O22  1  0.038953  0.590738  0.723181  1
  O  O23  1  0.992265  0.086488  0.708487  1
  O  O24  1  0.604959  0.679177  0.523462  1
  O  O25  1  0.395041  0.179177  0.476538  1
  O  O26  1  0.947402  0.303462  0.501755  1
  O  O27  1  0.052598  0.803462  0.498245  1
  O  O28  1  0.007735  0.586488  0.291513  1
  O  O29  1  0.961047  0.090738  0.276819  1
