# generated using pymatgen
data_K2UH6C2SO13
_symmetry_space_group_name_H-M   'P 1'
_cell_length_a   5.83684105
_cell_length_b   9.63432459
_cell_length_c   11.94603424
_cell_angle_alpha   89.54877412
_cell_angle_beta   94.06511837
_cell_angle_gamma   97.51725762
_symmetry_Int_Tables_number   1
_chemical_formula_structural   K2UH6C2SO13
_chemical_formula_sum   'K4 U2 H12 C4 S2 O26'
_cell_volume   664.32375037
_cell_formula_units_Z   2
loop_
 _symmetry_equiv_pos_site_id
 _symmetry_equiv_pos_as_xyz
  1  'x, y, z'
loop_
 _atom_site_type_symbol
 _atom_site_label
 _atom_site_symmetry_multiplicity
 _atom_site_fract_x
 _atom_site_fract_y
 _atom_site_fract_z
 _atom_site_occupancy
  K  K0  1  0.253224  0.518125  0.643674  1
  K  K1  1  0.208144  0.147444  0.433855  1
  K  K2  1  0.791856  0.852556  0.566145  1
  K  K3  1  0.746776  0.481875  0.356326  1
  U  U4  1  0.229653  0.735471  0.100759  1
  U  U5  1  0.770347  0.264529  0.899241  1
  H  H6  1  0.992367  0.277735  0.189856  1
  H  H7  1  0.157493  0.042226  0.729765  1
  H  H8  1  0.345186  0.849206  0.705798  1
  H  H9  1  0.182180  0.402394  0.221942  1
  H  H10  1  0.503700  0.779446  0.795217  1
  H  H11  1  0.370469  0.050120  0.655096  1
  H  H12  1  0.629531  0.949880  0.344904  1
  H  H13  1  0.496300  0.220554  0.204783  1
  H  H14  1  0.817820  0.597606  0.778058  1
  H  H15  1  0.654814  0.150794  0.294202  1
  H  H16  1  0.842507  0.957774  0.270235  1
  H  H17  1  0.007633  0.722265  0.810144  1
  C  C18  1  0.028754  0.980895  0.940432  1
  C  C19  1  0.500226  0.538618  0.943580  1
  C  C20  1  0.499774  0.461382  0.056420  1
  C  C21  1  0.971246  0.019105  0.059568  1
  S  S22  1  0.266511  0.731310  0.403318  1
  S  S23  1  0.733489  0.268690  0.596682  1
  O  O24  1  0.130889  0.873886  0.931425  1
  O  O25  1  0.044695  0.367868  0.938263  1
  O  O26  1  0.032987  0.940367  0.138768  1
  O  O27  1  0.070680  0.690849  0.473490  1
  O  O28  1  0.062710  0.335336  0.253510  1
  O  O29  1  0.171490  0.687760  0.281827  1
  O  O30  1  0.341269  0.883973  0.403335  1
  O  O31  1  0.213331  0.000540  0.663715  1
  O  O32  1  0.414398  0.652456  0.939000  1
  O  O33  1  0.465046  0.785130  0.714563  1
  O  O34  1  0.462032  0.652893  0.434377  1
  O  O35  1  0.412396  0.518304  0.136299  1
  O  O36  1  0.502545  0.842560  0.137222  1
  O  O37  1  0.497455  0.157440  0.862778  1
  O  O38  1  0.587604  0.481696  0.863701  1
  O  O39  1  0.537968  0.347107  0.565623  1
  O  O40  1  0.534954  0.214870  0.285437  1
  O  O41  1  0.585602  0.347544  0.061000  1
  O  O42  1  0.786669  0.999460  0.336285  1
  O  O43  1  0.658731  0.116027  0.596665  1
  O  O44  1  0.828510  0.312240  0.718173  1
  O  O45  1  0.937290  0.664664  0.746490  1
  O  O46  1  0.929320  0.309151  0.526510  1
  O  O47  1  0.967013  0.059633  0.861232  1
  O  O48  1  0.955305  0.632132  0.061737  1
  O  O49  1  0.869111  0.126114  0.068575  1
