# generated using pymatgen
data_TiP
_symmetry_space_group_name_H-M   'P 1'
_cell_length_a   3.49595235
_cell_length_b   3.49595235
_cell_length_c   11.72534882
_cell_angle_alpha   90.00000000
_cell_angle_beta   90.00000000
_cell_angle_gamma   120.00000000
_symmetry_Int_Tables_number   1
_chemical_formula_structural   TiP
_chemical_formula_sum   'Ti4 P4'
_cell_volume   124.10446682
_cell_formula_units_Z   4
loop_
 _symmetry_equiv_pos_site_id
 _symmetry_equiv_pos_as_xyz
  1  'x, y, z'
loop_
 _atom_site_type_symbol
 _atom_site_label
 _atom_site_symmetry_multiplicity
 _atom_site_fract_x
 _atom_site_fract_y
 _atom_site_fract_z
 _atom_site_occupancy
  Ti  Ti0  1  0.333333  0.666667  0.383714  1
  Ti  Ti1  1  0.666667  0.333333  0.883714  1
  Ti  Ti2  1  0.666667  0.333333  0.616286  1
  Ti  Ti3  1  0.333333  0.666667  0.116286  1
  P  P4  1  0.666667  0.333333  0.250000  1
  P  P5  1  0.333333  0.666667  0.750000  1
  P  P6  1  0.000000  0.000000  0.500000  1
  P  P7  1  0.000000  0.000000  0.000000  1
