# generated using pymatgen
data_BaLaCl5
_symmetry_space_group_name_H-M   'P 1'
_cell_length_a   7.13334650
_cell_length_b   12.46689363
_cell_length_c   9.97785972
_cell_angle_alpha   90.00000000
_cell_angle_beta   92.87807616
_cell_angle_gamma   90.00000000
_symmetry_Int_Tables_number   1
_chemical_formula_structural   BaLaCl5
_chemical_formula_sum   'Ba4 La4 Cl20'
_cell_volume   886.21852151
_cell_formula_units_Z   4
loop_
 _symmetry_equiv_pos_site_id
 _symmetry_equiv_pos_as_xyz
  1  'x, y, z'
loop_
 _atom_site_type_symbol
 _atom_site_label
 _atom_site_symmetry_multiplicity
 _atom_site_fract_x
 _atom_site_fract_y
 _atom_site_fract_z
 _atom_site_occupancy
  Ba  Ba0  1  0.033997  0.027495  0.176069  1
  Ba  Ba1  1  0.449358  0.363133  0.374986  1
  Ba  Ba2  1  0.550642  0.863133  0.625014  1
  Ba  Ba3  1  0.966003  0.527495  0.823931  1
  La  La4  1  0.986130  0.621060  0.387318  1
  La  La5  1  0.525113  0.213706  0.894198  1
  La  La6  1  0.474887  0.713706  0.105802  1
  La  La7  1  0.013870  0.121060  0.612682  1
  Cl  Cl8  1  0.955038  0.770619  0.588876  1
  Cl  Cl9  1  0.188902  0.528805  0.171675  1
  Cl  Cl10  1  0.147783  0.289643  0.785297  1
  Cl  Cl11  1  0.230130  0.514628  0.569239  1
  Cl  Cl12  1  0.310804  0.221800  0.122022  1
  Cl  Cl13  1  0.268145  0.019826  0.447733  1
  Cl  Cl14  1  0.202733  0.724297  0.905141  1
  Cl  Cl15  1  0.351818  0.738560  0.374549  1
  Cl  Cl16  1  0.315029  0.032025  0.786276  1
  Cl  Cl17  1  0.428822  0.932902  0.111854  1
  Cl  Cl18  1  0.571178  0.432902  0.888146  1
  Cl  Cl19  1  0.684971  0.532025  0.213724  1
  Cl  Cl20  1  0.648182  0.238560  0.625451  1
  Cl  Cl21  1  0.797267  0.224297  0.094859  1
  Cl  Cl22  1  0.731855  0.519826  0.552267  1
  Cl  Cl23  1  0.689196  0.721800  0.877978  1
  Cl  Cl24  1  0.769870  0.014628  0.430761  1
  Cl  Cl25  1  0.852217  0.789643  0.214703  1
  Cl  Cl26  1  0.811098  0.028805  0.828325  1
  Cl  Cl27  1  0.044962  0.270619  0.411124  1
