# generated using pymatgen
data_Fe2C2O7
_symmetry_space_group_name_H-M   'P 1'
_cell_length_a   8.05520008
_cell_length_b   7.74008405
_cell_length_c   11.56095281
_cell_angle_alpha   90.00000000
_cell_angle_beta   104.46565104
_cell_angle_gamma   90.00000000
_symmetry_Int_Tables_number   1
_chemical_formula_structural   Fe2C2O7
_chemical_formula_sum   'Fe8 C8 O28'
_cell_volume   697.95026971
_cell_formula_units_Z   4
loop_
 _symmetry_equiv_pos_site_id
 _symmetry_equiv_pos_as_xyz
  1  'x, y, z'
loop_
 _atom_site_type_symbol
 _atom_site_label
 _atom_site_symmetry_multiplicity
 _atom_site_fract_x
 _atom_site_fract_y
 _atom_site_fract_z
 _atom_site_occupancy
  Fe  Fe0  1  0.205217  0.083484  0.127944  1
  Fe  Fe1  1  0.637951  0.137838  0.618278  1
  Fe  Fe2  1  0.637951  0.362162  0.118278  1
  Fe  Fe3  1  0.794783  0.583484  0.372056  1
  Fe  Fe4  1  0.205217  0.416516  0.627944  1
  Fe  Fe5  1  0.362049  0.637838  0.881722  1
  Fe  Fe6  1  0.362049  0.862162  0.381722  1
  Fe  Fe7  1  0.794783  0.916516  0.872056  1
  C  C8  1  0.260242  0.394353  0.044194  1
  C  C9  1  0.739758  0.894353  0.455806  1
  C  C10  1  0.832873  0.425994  0.601212  1
  C  C11  1  0.167127  0.925994  0.898788  1
  C  C12  1  0.832873  0.074006  0.101212  1
  C  C13  1  0.167127  0.574006  0.398788  1
  C  C14  1  0.260242  0.105647  0.544194  1
  C  C15  1  0.739758  0.605647  0.955806  1
  O  O16  1  0.136185  0.324816  0.079951  1
  O  O17  1  0.355324  0.032513  0.271269  1
  O  O18  1  0.266827  0.940707  0.004893  1
  O  O19  1  0.399173  0.298598  0.055677  1
  O  O20  1  0.600827  0.798598  0.444323  1
  O  O21  1  0.783464  0.333267  0.679743  1
  O  O22  1  0.733173  0.440707  0.495107  1
  O  O23  1  0.644676  0.532513  0.228731  1
  O  O24  1  0.750996  0.045791  0.501152  1
  O  O25  1  0.019861  0.003986  0.869952  1
  O  O26  1  0.980139  0.503986  0.630048  1
  O  O27  1  0.863815  0.824816  0.420049  1
  O  O28  1  0.783464  0.166733  0.179743  1
  O  O29  1  0.249004  0.545791  0.998848  1
  O  O30  1  0.750996  0.454209  0.001152  1
  O  O31  1  0.216536  0.833267  0.820257  1
  O  O32  1  0.136185  0.175184  0.579951  1
  O  O33  1  0.019861  0.496014  0.369952  1
  O  O34  1  0.980139  0.996014  0.130048  1
  O  O35  1  0.249004  0.954209  0.498848  1
  O  O36  1  0.355324  0.467487  0.771269  1
  O  O37  1  0.266827  0.559293  0.504893  1
  O  O38  1  0.216536  0.666733  0.320257  1
  O  O39  1  0.399173  0.201402  0.555677  1
  O  O40  1  0.600827  0.701402  0.944323  1
  O  O41  1  0.733173  0.059293  0.995107  1
  O  O42  1  0.644676  0.967487  0.728731  1
  O  O43  1  0.863815  0.675184  0.920049  1
