# generated using pymatgen
data_Li2MnF4
_symmetry_space_group_name_H-M   'P 1'
_cell_length_a   5.92858346
_cell_length_b   5.92858346
_cell_length_c   5.43434889
_cell_angle_alpha   86.92958015
_cell_angle_beta   93.07041985
_cell_angle_gamma   121.61128921
_symmetry_Int_Tables_number   1
_chemical_formula_structural   Li2MnF4
_chemical_formula_sum   'Li4 Mn2 F8'
_cell_volume   162.35963737
_cell_formula_units_Z   2
loop_
 _symmetry_equiv_pos_site_id
 _symmetry_equiv_pos_as_xyz
  1  'x, y, z'
loop_
 _atom_site_type_symbol
 _atom_site_label
 _atom_site_symmetry_multiplicity
 _atom_site_fract_x
 _atom_site_fract_y
 _atom_site_fract_z
 _atom_site_occupancy
  Li  Li0  1  0.052959  0.648594  0.782964  1
  Li  Li1  1  0.351406  0.947041  0.282964  1
  Li  Li2  1  0.648594  0.052959  0.717036  1
  Li  Li3  1  0.947041  0.351406  0.217036  1
  Mn  Mn4  1  0.339306  0.339306  0.750000  1
  Mn  Mn5  1  0.660694  0.660694  0.250000  1
  F  F6  1  0.982593  0.281167  0.881850  1
  F  F7  1  0.718833  0.017407  0.381850  1
  F  F8  1  0.501312  0.730022  0.911536  1
  F  F9  1  0.269978  0.498688  0.411536  1
  F  F10  1  0.730022  0.501312  0.588464  1
  F  F11  1  0.498688  0.269978  0.088464  1
  F  F12  1  0.281167  0.982593  0.618150  1
  F  F13  1  0.017407  0.718833  0.118150  1
