# generated using pymatgen
data_Li5Co5O9F
_symmetry_space_group_name_H-M   'P 1'
_cell_length_a   5.01369971
_cell_length_b   5.12380857
_cell_length_c   7.81633944
_cell_angle_alpha   71.49019544
_cell_angle_beta   72.35217824
_cell_angle_gamma   79.24251475
_symmetry_Int_Tables_number   1
_chemical_formula_structural   Li5Co5O9F
_chemical_formula_sum   'Li5 Co5 O9 F1'
_cell_volume   180.53710068
_cell_formula_units_Z   1
loop_
 _symmetry_equiv_pos_site_id
 _symmetry_equiv_pos_as_xyz
  1  'x, y, z'
loop_
 _atom_site_type_symbol
 _atom_site_label
 _atom_site_symmetry_multiplicity
 _atom_site_fract_x
 _atom_site_fract_y
 _atom_site_fract_z
 _atom_site_occupancy
  Li  Li0  1  0.693019  0.495765  0.094454  1
  Li  Li1  1  0.110400  0.498420  0.304137  1
  Li  Li2  1  0.487570  0.497345  0.508352  1
  Li  Li3  1  0.903848  0.502599  0.694459  1
  Li  Li4  1  0.301790  0.509255  0.895929  1
  Co  Co5  1  0.383035  0.002687  0.199591  1
  Co  Co6  1  0.817676  0.015297  0.403219  1
  Co  Co7  1  0.206329  0.007315  0.599889  1
  Co  Co8  1  0.600569  0.004260  0.800808  1
  Co  Co9  1  0.008229  0.009942  0.987404  1
  O  O10  1  0.026162  0.225363  0.144728  1
  O  O11  1  0.325509  0.762385  0.049357  1
  O  O12  1  0.459066  0.214261  0.360822  1
  O  O13  1  0.874745  0.239571  0.551164  1
  O  O14  1  0.134972  0.763377  0.452801  1
  O  O15  1  0.269941  0.238472  0.750017  1
  O  O16  1  0.544163  0.788874  0.652976  1
  O  O17  1  0.661117  0.215431  0.950141  1
  O  O18  1  0.949371  0.789436  0.841621  1
  F  F19  1  0.742487  0.719945  0.258133  1
