# generated using pymatgen
data_Cr3Co(PO4)4
_symmetry_space_group_name_H-M   'P 1'
_cell_length_a   4.76110724
_cell_length_b   5.77906699
_cell_length_c   9.92565402
_cell_angle_alpha   90.00000000
_cell_angle_beta   90.45746100
_cell_angle_gamma   90.00000000
_symmetry_Int_Tables_number   1
_chemical_formula_structural   Cr3Co(PO4)4
_chemical_formula_sum   'Cr3 Co1 P4 O16'
_cell_volume   273.09326045
_cell_formula_units_Z   1
loop_
 _symmetry_equiv_pos_site_id
 _symmetry_equiv_pos_as_xyz
  1  'x, y, z'
loop_
 _atom_site_type_symbol
 _atom_site_label
 _atom_site_symmetry_multiplicity
 _atom_site_fract_x
 _atom_site_fract_y
 _atom_site_fract_z
 _atom_site_occupancy
  Cr  Cr0  1  0.473644  0.000000  0.229448  1
  Cr  Cr1  1  0.527843  0.500000  0.772610  1
  Cr  Cr2  1  0.974455  0.500000  0.270433  1
  Co  Co3  1  0.053012  0.000000  0.722993  1
  P  P4  1  0.077745  0.500000  0.593144  1
  P  P5  1  0.414757  0.500000  0.092143  1
  P  P6  1  0.588511  0.000000  0.903610  1
  P  P7  1  0.917814  0.000000  0.408900  1
  O  O8  1  0.169293  0.500000  0.446732  1
  O  O9  1  0.229498  0.294712  0.673256  1
  O  O10  1  0.229498  0.705288  0.673256  1
  O  O11  1  0.234648  0.000000  0.390556  1
  O  O12  1  0.264271  0.000000  0.889174  1
  O  O13  1  0.266131  0.294178  0.171750  1
  O  O14  1  0.266131  0.705822  0.171750  1
  O  O15  1  0.325947  0.500000  0.945484  1
  O  O16  1  0.663493  0.000000  0.053670  1
  O  O17  1  0.731055  0.791954  0.828880  1
  O  O18  1  0.731055  0.208046  0.828880  1
  O  O19  1  0.732111  0.500000  0.109529  1
  O  O20  1  0.761819  0.500000  0.608529  1
  O  O21  1  0.766836  0.794409  0.329272  1
  O  O22  1  0.766836  0.205591  0.329272  1
  O  O23  1  0.833599  0.000000  0.556728  1
