# generated using pymatgen
data_LiP2WO8
_symmetry_space_group_name_H-M   'P 1'
_cell_length_a   5.28886013
_cell_length_b   7.34054087
_cell_length_c   8.03777102
_cell_angle_alpha   90.00000000
_cell_angle_beta   91.71910477
_cell_angle_gamma   90.00000000
_symmetry_Int_Tables_number   1
_chemical_formula_structural   LiP2WO8
_chemical_formula_sum   'Li2 P4 W2 O16'
_cell_volume   311.91068911
_cell_formula_units_Z   2
loop_
 _symmetry_equiv_pos_site_id
 _symmetry_equiv_pos_as_xyz
  1  'x, y, z'
loop_
 _atom_site_type_symbol
 _atom_site_label
 _atom_site_symmetry_multiplicity
 _atom_site_fract_x
 _atom_site_fract_y
 _atom_site_fract_z
 _atom_site_occupancy
  Li  Li0  1  0.377239  0.087467  0.788181  1
  Li  Li1  1  0.622761  0.587467  0.211819  1
  P  P2  1  0.257995  0.190473  0.447185  1
  P  P3  1  0.742005  0.690473  0.552815  1
  P  P4  1  0.776445  0.316777  0.941589  1
  P  P5  1  0.223555  0.816777  0.058411  1
  W  W6  1  0.745387  0.008985  0.252737  1
  W  W7  1  0.254613  0.508985  0.747263  1
  O  O8  1  0.024199  0.173426  0.323499  1
  O  O9  1  0.490020  0.181549  0.325854  1
  O  O10  1  0.725330  0.543955  0.425280  1
  O  O11  1  0.748833  0.888270  0.479460  1
  O  O12  1  0.251167  0.388270  0.520540  1
  O  O13  1  0.274670  0.043955  0.574720  1
  O  O14  1  0.509980  0.681549  0.674146  1
  O  O15  1  0.975801  0.673426  0.676501  1
  O  O16  1  0.536992  0.329268  0.818107  1
  O  O17  1  0.011957  0.319572  0.824947  1
  O  O18  1  0.205477  0.967126  0.936760  1
  O  O19  1  0.252685  0.622312  0.979094  1
  O  O20  1  0.747315  0.122312  0.020906  1
  O  O21  1  0.794523  0.467126  0.063240  1
  O  O22  1  0.988043  0.819572  0.175053  1
  O  O23  1  0.463008  0.829268  0.181893  1
