# generated using pymatgen
data_Y2Bi2O7
_symmetry_space_group_name_H-M   'P 1'
_cell_length_a   8.23469343
_cell_length_b   5.76184435
_cell_length_c   14.02065136
_cell_angle_alpha   90.00000000
_cell_angle_beta   99.30285604
_cell_angle_gamma   90.00000000
_symmetry_Int_Tables_number   1
_chemical_formula_structural   Y2Bi2O7
_chemical_formula_sum   'Y8 Bi8 O28'
_cell_volume   656.48871234
_cell_formula_units_Z   4
loop_
 _symmetry_equiv_pos_site_id
 _symmetry_equiv_pos_as_xyz
  1  'x, y, z'
loop_
 _atom_site_type_symbol
 _atom_site_label
 _atom_site_symmetry_multiplicity
 _atom_site_fract_x
 _atom_site_fract_y
 _atom_site_fract_z
 _atom_site_occupancy
  Y  Y0  1  0.866415  0.309871  0.442572  1
  Y  Y1  1  0.752198  0.776541  0.067880  1
  Y  Y2  1  0.706080  0.239523  0.868382  1
  Y  Y3  1  0.636206  0.785736  0.611800  1
  Y  Y4  1  0.363794  0.285736  0.388200  1
  Y  Y5  1  0.293920  0.739523  0.131618  1
  Y  Y6  1  0.247802  0.276541  0.932120  1
  Y  Y7  1  0.133585  0.809871  0.557428  1
  Bi  Bi8  1  0.921584  0.261613  0.682284  1
  Bi  Bi9  1  0.976638  0.760782  0.882419  1
  Bi  Bi10  1  0.592861  0.779214  0.330761  1
  Bi  Bi11  1  0.541159  0.262811  0.131172  1
  Bi  Bi12  1  0.458841  0.762811  0.868828  1
  Bi  Bi13  1  0.407139  0.279214  0.669239  1
  Bi  Bi14  1  0.023362  0.260782  0.117581  1
  Bi  Bi15  1  0.078416  0.761613  0.317716  1
  O  O16  1  0.932459  0.547954  0.583030  1
  O  O17  1  0.010911  0.385136  0.824272  1
  O  O18  1  0.839608  0.635565  0.347103  1
  O  O19  1  0.783422  0.423655  0.129193  1
  O  O20  1  0.832420  0.047415  0.560022  1
  O  O21  1  0.901997  0.049371  0.977939  1
  O  O22  1  0.838871  0.967322  0.755041  1
  O  O23  1  0.636267  0.127137  0.372576  1
  O  O24  1  0.585946  0.869857  0.177988  1
  O  O25  1  0.729652  0.600218  0.922100  1
  O  O26  1  0.676140  0.429567  0.698322  1
  O  O27  1  0.578912  0.586078  0.461010  1
  O  O28  1  0.433417  0.557539  0.022336  1
  O  O29  1  0.467298  0.489588  0.258846  1
  O  O30  1  0.532702  0.989588  0.741154  1
  O  O31  1  0.566583  0.057539  0.977664  1
  O  O32  1  0.421088  0.086078  0.538990  1
  O  O33  1  0.323860  0.929567  0.301678  1
  O  O34  1  0.270348  0.100218  0.077900  1
  O  O35  1  0.414054  0.369857  0.822012  1
  O  O36  1  0.363733  0.627137  0.627424  1
  O  O37  1  0.161129  0.467322  0.244959  1
  O  O38  1  0.098003  0.549371  0.022061  1
  O  O39  1  0.167580  0.547415  0.439978  1
  O  O40  1  0.216578  0.923655  0.870807  1
  O  O41  1  0.160392  0.135565  0.652897  1
  O  O42  1  0.989089  0.885136  0.175728  1
  O  O43  1  0.067541  0.047954  0.416970  1
