# generated using pymatgen
data_Li3VOF5
_symmetry_space_group_name_H-M   'P 1'
_cell_length_a   5.50810038
_cell_length_b   5.50810038
_cell_length_c   5.50810038
_cell_angle_alpha   111.08855135
_cell_angle_beta   108.92061599
_cell_angle_gamma   108.41707510
_symmetry_Int_Tables_number   1
_chemical_formula_structural   Li3VOF5
_chemical_formula_sum   'Li3 V1 O1 F5'
_cell_volume   128.56272444
_cell_formula_units_Z   1
loop_
 _symmetry_equiv_pos_site_id
 _symmetry_equiv_pos_as_xyz
  1  'x, y, z'
loop_
 _atom_site_type_symbol
 _atom_site_label
 _atom_site_symmetry_multiplicity
 _atom_site_fract_x
 _atom_site_fract_y
 _atom_site_fract_z
 _atom_site_occupancy
  Li  Li0  1  0.265328  0.714820  0.449491  1
  Li  Li1  1  0.500000  0.338433  0.838433  1
  Li  Li2  1  0.734672  0.184163  0.449491  1
  V  V3  1  1.000000  0.001063  0.001063  1
  O  O4  1  0.000000  0.735712  0.735712  1
  F  F5  1  1.000000  0.329110  0.329110  1
  F  F6  1  0.310930  0.051637  0.362567  1
  F  F7  1  0.297090  0.351382  0.054292  1
  F  F8  1  0.689070  0.051637  0.740707  1
  F  F9  1  0.702910  0.757203  0.054292  1
