# generated using pymatgen
data_TiNi3(PO4)4
_symmetry_space_group_name_H-M   'P 1'
_cell_length_a   4.87401053
_cell_length_b   5.88879755
_cell_length_c   9.95859942
_cell_angle_alpha   90.00000000
_cell_angle_beta   91.14698964
_cell_angle_gamma   90.00000000
_symmetry_Int_Tables_number   1
_chemical_formula_structural   TiNi3(PO4)4
_chemical_formula_sum   'Ti1 Ni3 P4 O16'
_cell_volume   285.77505907
_cell_formula_units_Z   1
loop_
 _symmetry_equiv_pos_site_id
 _symmetry_equiv_pos_as_xyz
  1  'x, y, z'
loop_
 _atom_site_type_symbol
 _atom_site_label
 _atom_site_symmetry_multiplicity
 _atom_site_fract_x
 _atom_site_fract_y
 _atom_site_fract_z
 _atom_site_occupancy
  Ti  Ti0  1  0.968324  0.500000  0.272198  1
  Ni  Ni1  1  0.051142  0.000000  0.719176  1
  Ni  Ni2  1  0.462224  0.000000  0.229790  1
  Ni  Ni3  1  0.549602  0.500000  0.776767  1
  P  P4  1  0.088942  0.500000  0.598306  1
  P  P5  1  0.389428  0.500000  0.094273  1
  P  P6  1  0.597176  0.000000  0.901160  1
  P  P7  1  0.925672  0.000000  0.405250  1
  O  O8  1  0.144904  0.500000  0.443715  1
  O  O9  1  0.238420  0.293913  0.665409  1
  O  O10  1  0.238420  0.706087  0.665409  1
  O  O11  1  0.233741  0.000000  0.392182  1
  O  O12  1  0.282428  0.000000  0.882081  1
  O  O13  1  0.242820  0.300141  0.171435  1
  O  O14  1  0.242820  0.699859  0.171435  1
  O  O15  1  0.334690  0.500000  0.946305  1
  O  O16  1  0.651145  0.000000  0.052568  1
  O  O17  1  0.738521  0.794727  0.831546  1
  O  O18  1  0.738521  0.205273  0.831546  1
  O  O19  1  0.699420  0.500000  0.130788  1
  O  O20  1  0.779540  0.500000  0.614435  1
  O  O21  1  0.786453  0.793242  0.326611  1
  O  O22  1  0.786453  0.206758  0.326611  1
  O  O23  1  0.829195  0.000000  0.551007  1
