# generated using pymatgen
data_BaLaI5
_symmetry_space_group_name_H-M   'P 1'
_cell_length_a   14.85235597
_cell_length_b   11.65923223
_cell_length_c   21.48828598
_cell_angle_alpha   90.00000000
_cell_angle_beta   133.36177154
_cell_angle_gamma   90.00000000
_symmetry_Int_Tables_number   1
_chemical_formula_structural   BaLaI5
_chemical_formula_sum   'Ba8 La8 I40'
_cell_volume   2705.33572182
_cell_formula_units_Z   8
loop_
 _symmetry_equiv_pos_site_id
 _symmetry_equiv_pos_as_xyz
  1  'x, y, z'
loop_
 _atom_site_type_symbol
 _atom_site_label
 _atom_site_symmetry_multiplicity
 _atom_site_fract_x
 _atom_site_fract_y
 _atom_site_fract_z
 _atom_site_occupancy
  Ba  Ba0  1  0.349179  0.710645  0.142368  1
  Ba  Ba1  1  0.808225  0.731497  0.532619  1
  Ba  Ba2  1  0.650821  0.210645  0.357632  1
  Ba  Ba3  1  0.191775  0.231497  0.967381  1
  Ba  Ba4  1  0.808225  0.768503  0.032619  1
  Ba  Ba5  1  0.349179  0.789355  0.642368  1
  Ba  Ba6  1  0.191775  0.268503  0.467381  1
  Ba  Ba7  1  0.650821  0.289355  0.857632  1
  La  La8  1  0.202082  0.199589  0.193574  1
  La  La9  1  0.775800  0.234705  0.656903  1
  La  La10  1  0.224200  0.734705  0.843097  1
  La  La11  1  0.797918  0.699589  0.306426  1
  La  La12  1  0.202082  0.300411  0.693574  1
  La  La13  1  0.775800  0.265295  0.156903  1
  La  La14  1  0.224200  0.765295  0.343097  1
  La  La15  1  0.797918  0.800411  0.806426  1
  I  I16  1  0.438996  0.242310  0.381036  1
  I  I17  1  0.035138  0.807834  0.002706  1
  I  I18  1  0.453858  0.768732  0.360113  1
  I  I19  1  0.279669  0.404922  0.140677  1
  I  I20  1  0.908512  0.383278  0.819196  1
  I  I21  1  0.889936  0.036558  0.797038  1
  I  I22  1  0.361757  0.053127  0.172328  1
  I  I23  1  0.739356  0.434881  0.545188  1
  I  I24  1  0.736571  0.039620  0.535973  1
  I  I25  1  0.929767  0.702295  0.747469  1
  I  I26  1  0.638243  0.553127  0.327672  1
  I  I27  1  0.070233  0.202295  0.752531  1
  I  I28  1  0.263429  0.539620  0.964027  1
  I  I29  1  0.260644  0.934881  0.954812  1
  I  I30  1  0.720331  0.904922  0.359323  1
  I  I31  1  0.546142  0.268732  0.139887  1
  I  I32  1  0.110064  0.536558  0.702962  1
  I  I33  1  0.091488  0.883278  0.680804  1
  I  I34  1  0.561004  0.742310  0.118964  1
  I  I35  1  0.964862  0.307834  0.497294  1
  I  I36  1  0.035138  0.692166  0.502706  1
  I  I37  1  0.438996  0.257690  0.881036  1
  I  I38  1  0.908512  0.116722  0.319196  1
  I  I39  1  0.889936  0.463442  0.297038  1
  I  I40  1  0.453858  0.731268  0.860113  1
  I  I41  1  0.279669  0.095078  0.640677  1
  I  I42  1  0.739356  0.065119  0.045188  1
  I  I43  1  0.736571  0.460380  0.035973  1
  I  I44  1  0.929767  0.797705  0.247469  1
  I  I45  1  0.361757  0.446873  0.672328  1
  I  I46  1  0.070233  0.297705  0.252531  1
  I  I47  1  0.263429  0.960380  0.464027  1
  I  I48  1  0.260644  0.565119  0.454812  1
  I  I49  1  0.638243  0.946873  0.827672  1
  I  I50  1  0.110064  0.963442  0.202962  1
  I  I51  1  0.091488  0.616722  0.180804  1
  I  I52  1  0.720331  0.595078  0.859323  1
  I  I53  1  0.546142  0.231268  0.639887  1
  I  I54  1  0.964862  0.192166  0.997294  1
  I  I55  1  0.561004  0.757690  0.618964  1
