# generated using pymatgen
data_Na4Li3(FeO4)2
_symmetry_space_group_name_H-M   'P 1'
_cell_length_a   6.44484320
_cell_length_b   8.07395304
_cell_length_c   10.30433080
_cell_angle_alpha   90.00000000
_cell_angle_beta   126.37309018
_cell_angle_gamma   90.00000000
_symmetry_Int_Tables_number   1
_chemical_formula_structural   Na4Li3(FeO4)2
_chemical_formula_sum   'Na8 Li6 Fe4 O16'
_cell_volume   431.72505755
_cell_formula_units_Z   2
loop_
 _symmetry_equiv_pos_site_id
 _symmetry_equiv_pos_as_xyz
  1  'x, y, z'
loop_
 _atom_site_type_symbol
 _atom_site_label
 _atom_site_symmetry_multiplicity
 _atom_site_fract_x
 _atom_site_fract_y
 _atom_site_fract_z
 _atom_site_occupancy
  Na  Na0  1  0.251908  0.743693  0.992572  1
  Na  Na1  1  0.731062  0.745066  0.990609  1
  Na  Na2  1  0.746777  0.457616  0.762912  1
  Na  Na3  1  0.282948  0.029526  0.749689  1
  Na  Na4  1  0.251908  0.256307  0.492572  1
  Na  Na5  1  0.731062  0.254934  0.490609  1
  Na  Na6  1  0.746777  0.542384  0.262912  1
  Na  Na7  1  0.282948  0.970474  0.249689  1
  Li  Li8  1  0.425751  0.398806  0.924956  1
  Li  Li9  1  0.898889  0.765689  0.644972  1
  Li  Li10  1  0.562189  0.952755  0.584942  1
  Li  Li11  1  0.425751  0.601194  0.424956  1
  Li  Li12  1  0.898889  0.234311  0.144972  1
  Li  Li13  1  0.562189  0.047245  0.084942  1
  Fe  Fe14  1  0.875730  0.036912  0.872721  1
  Fe  Fe15  1  0.141438  0.530938  0.636096  1
  Fe  Fe16  1  0.875730  0.963088  0.372721  1
  Fe  Fe17  1  0.141438  0.469062  0.136096  1
  O  O18  1  0.207090  0.035150  0.967429  1
  O  O19  1  0.745026  0.052874  0.985435  1
  O  O20  1  0.262885  0.706162  0.771756  1
  O  O21  1  0.799846  0.831036  0.787475  1
  O  O22  1  0.196983  0.317395  0.698843  1
  O  O23  1  0.684837  0.168701  0.705881  1
  O  O24  1  0.288638  0.537025  0.535551  1
  O  O25  1  0.793139  0.548935  0.540480  1
  O  O26  1  0.745026  0.947126  0.485435  1
  O  O27  1  0.207090  0.964850  0.467429  1
  O  O28  1  0.262885  0.293838  0.271756  1
  O  O29  1  0.799846  0.168964  0.287475  1
  O  O30  1  0.196983  0.682605  0.198843  1
  O  O31  1  0.684837  0.831299  0.205881  1
  O  O32  1  0.288638  0.462975  0.035551  1
  O  O33  1  0.793139  0.451065  0.040480  1
