# generated using pymatgen
data_Li3Fe8(BO3)8
_symmetry_space_group_name_H-M   'P 1'
_cell_length_a   5.23345583
_cell_length_b   9.16713935
_cell_length_c   11.33130246
_cell_angle_alpha   113.01604870
_cell_angle_beta   103.29840741
_cell_angle_gamma   89.41619858
_symmetry_Int_Tables_number   1
_chemical_formula_structural   Li3Fe8(BO3)8
_chemical_formula_sum   'Li3 Fe8 B8 O24'
_cell_volume   485.00259801
_cell_formula_units_Z   1
loop_
 _symmetry_equiv_pos_site_id
 _symmetry_equiv_pos_as_xyz
  1  'x, y, z'
loop_
 _atom_site_type_symbol
 _atom_site_label
 _atom_site_symmetry_multiplicity
 _atom_site_fract_x
 _atom_site_fract_y
 _atom_site_fract_z
 _atom_site_occupancy
  Li  Li0  1  0.290264  0.275781  0.914134  1
  Li  Li1  1  0.485651  0.504460  0.655272  1
  Li  Li2  1  0.976352  0.000179  0.649527  1
  Fe  Fe3  1  0.021531  0.349102  0.370391  1
  Fe  Fe4  1  0.258203  0.931027  0.882352  1
  Fe  Fe5  1  0.465024  0.156070  0.623735  1
  Fe  Fe6  1  0.243721  0.566527  0.139754  1
  Fe  Fe7  1  0.771074  0.442790  0.886324  1
  Fe  Fe8  1  0.520070  0.853813  0.374328  1
  Fe  Fe9  1  0.975354  0.649138  0.627258  1
  Fe  Fe10  1  0.737191  0.064197  0.124765  1
  B  B11  1  0.031769  0.693164  0.387673  1
  B  B12  1  0.256105  0.590763  0.865092  1
  B  B13  1  0.477675  0.813442  0.625786  1
  B  B14  1  0.238045  0.899624  0.133459  1
  B  B15  1  0.527508  0.187398  0.377054  1
  B  B16  1  0.768879  0.114084  0.877868  1
  B  B17  1  0.970289  0.319418  0.631724  1
  B  B18  1  0.727774  0.387052  0.120770  1
  O  O19  1  0.018320  0.096506  0.857496  1
  O  O20  1  0.110730  0.695322  0.820223  1
  O  O21  1  0.144777  0.496512  0.914335  1
  O  O22  1  0.098227  0.192221  0.636550  1
  O  O23  1  0.071673  0.424174  0.584255  1
  O  O24  1  0.230387  0.830378  0.659190  1
  O  O25  1  0.266381  0.680186  0.349350  1
  O  O26  1  0.509876  0.574052  0.852582  1
  O  O27  1  0.616946  0.226294  0.841615  1
  O  O28  1  0.462800  0.074933  0.421771  1
  O  O29  1  0.376077  0.310462  0.383575  1
  O  O30  1  0.651664  0.026857  0.929958  1
  O  O31  1  0.369444  0.986641  0.084705  1
  O  O32  1  0.615968  0.686037  0.630524  1
  O  O33  1  0.579247  0.926013  0.590992  1
  O  O34  1  0.381561  0.795212  0.180312  1
  O  O35  1  0.464643  0.380095  0.103295  1
  O  O36  1  0.738543  0.353859  0.674233  1
  O  O37  1  0.759682  0.175263  0.332471  1
  O  O38  1  0.960328  0.575800  0.430181  1
  O  O39  1  0.874720  0.811705  0.389827  1
  O  O40  1  0.858912  0.484010  0.078564  1
  O  O41  1  0.884091  0.290980  0.175683  1
  O  O42  1  0.979495  0.916801  0.132444  1
