# generated using pymatgen
data_Na3CuBPO7
_symmetry_space_group_name_H-M   'P 1'
_cell_length_a   5.22212173
_cell_length_b   6.48497215
_cell_length_c   9.00769509
_cell_angle_alpha   90.00000000
_cell_angle_beta   91.14442567
_cell_angle_gamma   90.00000000
_symmetry_Int_Tables_number   1
_chemical_formula_structural   Na3CuBPO7
_chemical_formula_sum   'Na6 Cu2 B2 P2 O14'
_cell_volume   304.98757369
_cell_formula_units_Z   2
loop_
 _symmetry_equiv_pos_site_id
 _symmetry_equiv_pos_as_xyz
  1  'x, y, z'
loop_
 _atom_site_type_symbol
 _atom_site_label
 _atom_site_symmetry_multiplicity
 _atom_site_fract_x
 _atom_site_fract_y
 _atom_site_fract_z
 _atom_site_occupancy
  Na  Na0  1  0.240699  0.750000  0.081150  1
  Na  Na1  1  0.753890  0.998934  0.258874  1
  Na  Na2  1  0.753890  0.501066  0.258874  1
  Na  Na3  1  0.246110  0.498934  0.741126  1
  Na  Na4  1  0.246110  0.001066  0.741126  1
  Na  Na5  1  0.759301  0.250000  0.918850  1
  Cu  Cu6  1  0.225610  0.250000  0.342305  1
  Cu  Cu7  1  0.774390  0.750000  0.657695  1
  B  B8  1  0.263851  0.250000  0.064875  1
  B  B9  1  0.736149  0.750000  0.935125  1
  P  P10  1  0.296805  0.750000  0.422027  1
  P  P11  1  0.703195  0.250000  0.577973  1
  O  O12  1  0.714288  0.750000  0.084089  1
  O  O13  1  0.032173  0.250000  0.137296  1
  O  O14  1  0.472525  0.250000  0.162855  1
  O  O15  1  0.220640  0.937322  0.320707  1
  O  O16  1  0.220640  0.562678  0.320707  1
  O  O17  1  0.592817  0.750000  0.451947  1
  O  O18  1  0.845665  0.250000  0.430708  1
  O  O19  1  0.154335  0.750000  0.569292  1
  O  O20  1  0.407183  0.250000  0.548053  1
  O  O21  1  0.779360  0.437322  0.679293  1
  O  O22  1  0.779360  0.062678  0.679293  1
  O  O23  1  0.527475  0.750000  0.837145  1
  O  O24  1  0.967827  0.750000  0.862704  1
  O  O25  1  0.285712  0.250000  0.915911  1
