# generated using pymatgen
data_FeH6SO6
_symmetry_space_group_name_H-M   'P 1'
_cell_length_a   7.42264753
_cell_length_b   8.03466571
_cell_length_c   9.32049004
_cell_angle_alpha   90.00000000
_cell_angle_beta   104.25574368
_cell_angle_gamma   90.00000000
_symmetry_Int_Tables_number   1
_chemical_formula_structural   FeH6SO6
_chemical_formula_sum   'Fe4 H24 S4 O24'
_cell_volume   538.74294231
_cell_formula_units_Z   4
loop_
 _symmetry_equiv_pos_site_id
 _symmetry_equiv_pos_as_xyz
  1  'x, y, z'
loop_
 _atom_site_type_symbol
 _atom_site_label
 _atom_site_symmetry_multiplicity
 _atom_site_fract_x
 _atom_site_fract_y
 _atom_site_fract_z
 _atom_site_occupancy
  Fe  Fe0  1  0.656850  0.642282  0.478012  1
  Fe  Fe1  1  0.343150  0.142282  0.021988  1
  Fe  Fe2  1  0.343150  0.357718  0.521988  1
  Fe  Fe3  1  0.656850  0.857718  0.978012  1
  H  H4  1  0.016774  0.731054  0.480046  1
  H  H5  1  0.983226  0.231054  0.019954  1
  H  H6  1  0.983226  0.268946  0.519954  1
  H  H7  1  0.016774  0.768946  0.980046  1
  H  H8  1  0.980482  0.577366  0.368830  1
  H  H9  1  0.019518  0.077366  0.131170  1
  H  H10  1  0.019518  0.422634  0.631170  1
  H  H11  1  0.980482  0.922634  0.868830  1
  H  H12  1  0.181689  0.515247  0.246851  1
  H  H13  1  0.818311  0.015247  0.253149  1
  H  H14  1  0.818311  0.484753  0.753149  1
  H  H15  1  0.181689  0.984753  0.746851  1
  H  H16  1  0.118760  0.328365  0.247998  1
  H  H17  1  0.881240  0.828365  0.252002  1
  H  H18  1  0.881240  0.671635  0.752002  1
  H  H19  1  0.118760  0.171635  0.747998  1
  H  H20  1  0.650008  0.577618  0.122818  1
  H  H21  1  0.349992  0.077618  0.377182  1
  H  H22  1  0.349992  0.422382  0.877182  1
  H  H23  1  0.650008  0.922382  0.622818  1
  H  H24  1  0.735654  0.505013  0.991741  1
  H  H25  1  0.264346  0.005013  0.508259  1
  H  H26  1  0.264346  0.494987  0.008259  1
  H  H27  1  0.735654  0.994987  0.491741  1
  S  S28  1  0.652317  0.291146  0.311877  1
  S  S29  1  0.347683  0.791146  0.188123  1
  S  S30  1  0.347683  0.708854  0.688123  1
  S  S31  1  0.652317  0.208854  0.811877  1
  O  O32  1  0.598740  0.380349  0.445504  1
  O  O33  1  0.401260  0.880349  0.054496  1
  O  O34  1  0.401260  0.619651  0.554496  1
  O  O35  1  0.598740  0.119651  0.945504  1
  O  O36  1  0.519757  0.685499  0.257435  1
  O  O37  1  0.480243  0.185499  0.242565  1
  O  O38  1  0.480243  0.314501  0.742565  1
  O  O39  1  0.519757  0.814501  0.757435  1
  O  O40  1  0.198206  0.662759  0.113203  1
  O  O41  1  0.801794  0.162759  0.386797  1
  O  O42  1  0.801794  0.337241  0.886797  1
  O  O43  1  0.198206  0.837241  0.613203  1
  O  O44  1  0.919612  0.675644  0.400772  1
  O  O45  1  0.080388  0.175644  0.099228  1
  O  O46  1  0.080388  0.324356  0.599228  1
  O  O47  1  0.919612  0.824356  0.900772  1
  O  O48  1  0.148532  0.427773  0.312915  1
  O  O49  1  0.851468  0.927773  0.187085  1
  O  O50  1  0.851468  0.572227  0.687085  1
  O  O51  1  0.148532  0.072227  0.812915  1
  O  O52  1  0.715499  0.606883  0.046322  1
  O  O53  1  0.284501  0.106883  0.453678  1
  O  O54  1  0.284501  0.393117  0.953678  1
  O  O55  1  0.715499  0.893117  0.546322  1
