# generated using pymatgen
data_MgCoH16(ClO2)4
_symmetry_space_group_name_H-M   'P 1'
_cell_length_a   6.13323707
_cell_length_b   6.36027189
_cell_length_c   8.68899264
_cell_angle_alpha   82.49065271
_cell_angle_beta   88.80678615
_cell_angle_gamma   86.57674198
_symmetry_Int_Tables_number   1
_chemical_formula_structural   MgCoH16(ClO2)4
_chemical_formula_sum   'Mg1 Co1 H16 Cl4 O8'
_cell_volume   335.41377085
_cell_formula_units_Z   1
loop_
 _symmetry_equiv_pos_site_id
 _symmetry_equiv_pos_as_xyz
  1  'x, y, z'
loop_
 _atom_site_type_symbol
 _atom_site_label
 _atom_site_symmetry_multiplicity
 _atom_site_fract_x
 _atom_site_fract_y
 _atom_site_fract_z
 _atom_site_occupancy
  Mg  Mg0  1  0.500000  0.500000  0.500000  1
  Co  Co1  1  0.000000  0.000000  0.000000  1
  H  H2  1  0.779000  0.386093  0.951262  1
  H  H3  1  0.221000  0.613907  0.048738  1
  H  H4  1  0.603977  0.212797  0.971505  1
  H  H5  1  0.396023  0.787203  0.028495  1
  H  H6  1  0.496324  0.105963  0.659505  1
  H  H7  1  0.503676  0.894037  0.340495  1
  H  H8  1  0.745379  0.161513  0.650324  1
  H  H9  1  0.254621  0.838487  0.349676  1
  H  H10  1  0.255003  0.453634  0.773819  1
  H  H11  1  0.744997  0.546366  0.226181  1
  H  H12  1  0.251640  0.700651  0.710792  1
  H  H13  1  0.748360  0.299349  0.289208  1
  H  H14  1  0.769926  0.679849  0.690630  1
  H  H15  1  0.230074  0.320151  0.309370  1
  H  H16  1  0.855484  0.717980  0.517184  1
  H  H17  1  0.144516  0.282020  0.482816  1
  Cl  Cl18  1  0.119206  0.034036  0.720332  1
  Cl  Cl19  1  0.880794  0.965964  0.279668  1
  Cl  Cl20  1  0.741086  0.732428  0.953160  1
  Cl  Cl21  1  0.258914  0.267572  0.046840  1
  O  O22  1  0.757937  0.235324  0.941942  1
  O  O23  1  0.242063  0.764676  0.058058  1
  O  O24  1  0.602968  0.192761  0.599502  1
  O  O25  1  0.397032  0.807239  0.400498  1
  O  O26  1  0.310115  0.558446  0.691706  1
  O  O27  1  0.689885  0.441554  0.308294  1
  O  O28  1  0.773478  0.621310  0.591708  1
  O  O29  1  0.226522  0.378690  0.408292  1
