# generated using pymatgen
data_Ga3NO3
_symmetry_space_group_name_H-M   'P 1'
_cell_length_a   8.31764353
_cell_length_b   8.31764353
_cell_length_c   3.14282452
_cell_angle_alpha   90.00000000
_cell_angle_beta   90.00000000
_cell_angle_gamma   120.00000000
_symmetry_Int_Tables_number   1
_chemical_formula_structural   Ga3NO3
_chemical_formula_sum   'Ga6 N2 O6'
_cell_volume   188.30045624
_cell_formula_units_Z   2
loop_
 _symmetry_equiv_pos_site_id
 _symmetry_equiv_pos_as_xyz
  1  'x, y, z'
loop_
 _atom_site_type_symbol
 _atom_site_label
 _atom_site_symmetry_multiplicity
 _atom_site_fract_x
 _atom_site_fract_y
 _atom_site_fract_z
 _atom_site_occupancy
  Ga  Ga0  1  0.174877  0.761491  0.250000  1
  Ga  Ga1  1  0.238509  0.413386  0.250000  1
  Ga  Ga2  1  0.586614  0.825123  0.250000  1
  Ga  Ga3  1  0.413386  0.174877  0.750000  1
  Ga  Ga4  1  0.761491  0.586614  0.750000  1
  Ga  Ga5  1  0.825123  0.238509  0.750000  1
  N  N6  1  0.333333  0.666667  0.250000  1
  N  N7  1  0.666667  0.333333  0.750000  1
  O  O8  1  0.026492  0.707429  0.750000  1
  O  O9  1  0.292571  0.319063  0.750000  1
  O  O10  1  0.680937  0.973508  0.750000  1
  O  O11  1  0.319063  0.026492  0.250000  1
  O  O12  1  0.707429  0.680937  0.250000  1
  O  O13  1  0.973508  0.292571  0.250000  1
