# generated using pymatgen
data_K3Li2Nb5O15
_symmetry_space_group_name_H-M   'P 1'
_cell_length_a   12.74361911
_cell_length_b   12.74361911
_cell_length_c   4.17170591
_cell_angle_alpha   90.00000000
_cell_angle_beta   90.00000000
_cell_angle_gamma   90.00000000
_symmetry_Int_Tables_number   1
_chemical_formula_structural   K3Li2Nb5O15
_chemical_formula_sum   'K6 Li4 Nb10 O30'
_cell_volume   677.48432234
_cell_formula_units_Z   2
loop_
 _symmetry_equiv_pos_site_id
 _symmetry_equiv_pos_as_xyz
  1  'x, y, z'
loop_
 _atom_site_type_symbol
 _atom_site_label
 _atom_site_symmetry_multiplicity
 _atom_site_fract_x
 _atom_site_fract_y
 _atom_site_fract_z
 _atom_site_occupancy
  K  K0  1  0.000000  0.000000  0.492982  1
  K  K1  1  0.671919  0.171919  0.497195  1
  K  K2  1  0.171919  0.328081  0.497195  1
  K  K3  1  0.500000  0.500000  0.492982  1
  K  K4  1  0.828081  0.671919  0.497195  1
  K  K5  1  0.328081  0.828081  0.497195  1
  Li  Li6  1  0.375834  0.124166  0.547029  1
  Li  Li7  1  0.875834  0.375834  0.547029  1
  Li  Li8  1  0.124166  0.624166  0.547029  1
  Li  Li9  1  0.624166  0.875834  0.547029  1
  Nb  Nb10  1  0.500000  0.000000  0.008096  1
  Nb  Nb11  1  0.207665  0.076339  0.012726  1
  Nb  Nb12  1  0.923661  0.207665  0.012726  1
  Nb  Nb13  1  0.423661  0.292335  0.012726  1
  Nb  Nb14  1  0.707665  0.423661  0.012726  1
  Nb  Nb15  1  0.000000  0.500000  0.008096  1
  Nb  Nb16  1  0.292335  0.576339  0.012726  1
  Nb  Nb17  1  0.576339  0.707665  0.012726  1
  Nb  Nb18  1  0.076339  0.792335  0.012726  1
  Nb  Nb19  1  0.792335  0.923661  0.012726  1
  O  O20  1  0.500000  0.000000  0.456904  1
  O  O21  1  0.345750  0.003083  0.940529  1
  O  O22  1  0.858664  0.068267  0.965769  1
  O  O23  1  0.216332  0.080264  0.457738  1
  O  O24  1  0.068267  0.141336  0.965769  1
  O  O25  1  0.496917  0.154250  0.940529  1
  O  O26  1  0.289014  0.210986  0.950694  1
  O  O27  1  0.919736  0.216332  0.457738  1
  O  O28  1  0.419736  0.283668  0.457738  1
  O  O29  1  0.789014  0.289014  0.950694  1
  O  O30  1  0.996917  0.345750  0.940529  1
  O  O31  1  0.568267  0.358664  0.965769  1
  O  O32  1  0.716332  0.419736  0.457738  1
  O  O33  1  0.358664  0.431733  0.965769  1
  O  O34  1  0.845750  0.496917  0.940529  1
  O  O35  1  0.000000  0.500000  0.456904  1
  O  O36  1  0.154250  0.503083  0.940529  1
  O  O37  1  0.641336  0.568267  0.965769  1
  O  O38  1  0.283668  0.580264  0.457738  1
  O  O39  1  0.431733  0.641336  0.965769  1
  O  O40  1  0.003083  0.654250  0.940529  1
  O  O41  1  0.210986  0.710986  0.950694  1
  O  O42  1  0.580264  0.716332  0.457738  1
  O  O43  1  0.080264  0.783668  0.457738  1
  O  O44  1  0.710986  0.789014  0.950694  1
  O  O45  1  0.503083  0.845750  0.940529  1
  O  O46  1  0.931733  0.858664  0.965769  1
  O  O47  1  0.783668  0.919736  0.457738  1
  O  O48  1  0.141336  0.931733  0.965769  1
  O  O49  1  0.654250  0.996917  0.940529  1
