# generated using pymatgen
data_Li5Mn8(BO3)8
_symmetry_space_group_name_H-M   'P 1'
_cell_length_a   5.31812906
_cell_length_b   9.23108583
_cell_length_c   11.41704808
_cell_angle_alpha   112.95094287
_cell_angle_beta   102.74213231
_cell_angle_gamma   89.06266741
_symmetry_Int_Tables_number   1
_chemical_formula_structural   Li5Mn8(BO3)8
_chemical_formula_sum   'Li5 Mn8 B8 O24'
_cell_volume   501.89176646
_cell_formula_units_Z   1
loop_
 _symmetry_equiv_pos_site_id
 _symmetry_equiv_pos_as_xyz
  1  'x, y, z'
loop_
 _atom_site_type_symbol
 _atom_site_label
 _atom_site_symmetry_multiplicity
 _atom_site_fract_x
 _atom_site_fract_y
 _atom_site_fract_z
 _atom_site_occupancy
  Li  Li0  1  0.970657  0.965354  0.102082  1
  Li  Li1  1  0.723715  0.749020  0.338945  1
  Li  Li2  1  0.510386  0.482992  0.828692  1
  Li  Li3  1  0.215761  0.255111  0.339665  1
  Li  Li4  1  0.015208  0.980947  0.828841  1
  Mn  Mn5  1  0.987843  0.640346  0.123201  1
  Mn  Mn6  1  0.751555  0.439439  0.373888  1
  Mn  Mn7  1  0.720408  0.069913  0.619626  1
  Mn  Mn8  1  0.476850  0.156764  0.118463  1
  Mn  Mn9  1  0.531924  0.843980  0.869442  1
  Mn  Mn10  1  0.242907  0.937356  0.373247  1
  Mn  Mn11  1  0.226658  0.568661  0.619941  1
  Mn  Mn12  1  0.026045  0.339895  0.869761  1
  B  B13  1  0.961354  0.305146  0.119315  1
  B  B14  1  0.746985  0.111308  0.370647  1
  B  B15  1  0.751109  0.393060  0.629255  1
  B  B16  1  0.483303  0.826723  0.131983  1
  B  B17  1  0.518599  0.180980  0.864776  1
  B  B18  1  0.264655  0.609638  0.378841  1
  B  B19  1  0.242042  0.892594  0.625830  1
  B  B20  1  0.030813  0.681419  0.872432  1
  O  O21  1  0.993177  0.104127  0.355425  1
  O  O22  1  0.998970  0.918997  0.642409  1
  O  O23  1  0.746553  0.343288  0.171708  1
  O  O24  1  0.874187  0.464672  0.568213  1
  O  O25  1  0.896966  0.286634  0.674401  1
  O  O26  1  0.639351  0.720246  0.156417  1
  O  O27  1  0.563178  0.922554  0.074714  1
  O  O28  1  0.930653  0.824585  0.891848  1
  O  O29  1  0.923275  0.573270  0.909610  1
  O  O30  1  0.651140  0.016980  0.426877  1
  O  O31  1  0.574508  0.206874  0.328358  1
  O  O32  1  0.749518  0.141076  0.818026  1
  O  O33  1  0.515493  0.613486  0.375380  1
  O  O34  1  0.508931  0.420764  0.644386  1
  O  O35  1  0.241909  0.846414  0.166156  1
  O  O36  1  0.363023  0.975354  0.571651  1
  O  O37  1  0.385977  0.783680  0.665471  1
  O  O38  1  0.097211  0.181152  0.129349  1
  O  O39  1  0.034997  0.398613  0.059361  1
  O  O40  1  0.403681  0.312292  0.864769  1
  O  O41  1  0.421105  0.079469  0.911083  1
  O  O42  1  0.163486  0.503258  0.423974  1
  O  O43  1  0.091367  0.703455  0.335855  1
  O  O44  1  0.250566  0.642264  0.818408  1
