# generated using pymatgen
data_Sn4P2O9
_symmetry_space_group_name_H-M   'P 1'
_cell_length_a   7.25286656
_cell_length_b   9.73016338
_cell_length_c   13.69884822
_cell_angle_alpha   90.00000000
_cell_angle_beta   90.00000000
_cell_angle_gamma   90.00000000
_symmetry_Int_Tables_number   1
_chemical_formula_structural   Sn4P2O9
_chemical_formula_sum   'Sn16 P8 O36'
_cell_volume   966.74931652
_cell_formula_units_Z   4
loop_
 _symmetry_equiv_pos_site_id
 _symmetry_equiv_pos_as_xyz
  1  'x, y, z'
loop_
 _atom_site_type_symbol
 _atom_site_label
 _atom_site_symmetry_multiplicity
 _atom_site_fract_x
 _atom_site_fract_y
 _atom_site_fract_z
 _atom_site_occupancy
  Sn  Sn0  1  0.250000  0.965902  0.390357  1
  Sn  Sn1  1  0.750000  0.808322  0.090815  1
  Sn  Sn2  1  0.514956  0.864561  0.836403  1
  Sn  Sn3  1  0.985044  0.864561  0.836403  1
  Sn  Sn4  1  0.014956  0.635439  0.336403  1
  Sn  Sn5  1  0.485044  0.635439  0.336403  1
  Sn  Sn6  1  0.250000  0.691678  0.590815  1
  Sn  Sn7  1  0.750000  0.534098  0.890357  1
  Sn  Sn8  1  0.250000  0.465902  0.109643  1
  Sn  Sn9  1  0.750000  0.308322  0.409185  1
  Sn  Sn10  1  0.514956  0.364561  0.663597  1
  Sn  Sn11  1  0.985044  0.364561  0.663597  1
  Sn  Sn12  1  0.014956  0.135439  0.163597  1
  Sn  Sn13  1  0.485044  0.135439  0.163597  1
  Sn  Sn14  1  0.250000  0.191678  0.909185  1
  Sn  Sn15  1  0.750000  0.034098  0.609643  1
  P  P16  1  0.750000  0.956476  0.363335  1
  P  P17  1  0.250000  0.850349  0.050097  1
  P  P18  1  0.750000  0.649651  0.550097  1
  P  P19  1  0.250000  0.543524  0.863335  1
  P  P20  1  0.750000  0.456476  0.136665  1
  P  P21  1  0.250000  0.350349  0.449903  1
  P  P22  1  0.750000  0.149651  0.949903  1
  P  P23  1  0.250000  0.043524  0.636665  1
  O  O24  1  0.428180  0.914582  0.094256  1
  O  O25  1  0.071820  0.914582  0.094256  1
  O  O26  1  0.250000  0.892868  0.935717  1
  O  O27  1  0.250000  0.956713  0.730592  1
  O  O28  1  0.928165  0.868459  0.370684  1
  O  O29  1  0.571835  0.868459  0.370684  1
  O  O30  1  0.250000  0.936106  0.548532  1
  O  O31  1  0.750000  0.805253  0.563431  1
  O  O32  1  0.750000  0.797888  0.937549  1
  O  O33  1  0.250000  0.702112  0.437549  1
  O  O34  1  0.250000  0.694747  0.063431  1
  O  O35  1  0.750000  0.563894  0.048532  1
  O  O36  1  0.428165  0.631541  0.870684  1
  O  O37  1  0.071835  0.631541  0.870684  1
  O  O38  1  0.750000  0.543287  0.230592  1
  O  O39  1  0.750000  0.607132  0.435717  1
  O  O40  1  0.928180  0.585418  0.594256  1
  O  O41  1  0.571820  0.585418  0.594256  1
  O  O42  1  0.428180  0.414582  0.405744  1
  O  O43  1  0.071820  0.414582  0.405744  1
  O  O44  1  0.250000  0.392868  0.564283  1
  O  O45  1  0.250000  0.456713  0.769408  1
  O  O46  1  0.928165  0.368459  0.129316  1
  O  O47  1  0.571835  0.368459  0.129316  1
  O  O48  1  0.250000  0.436106  0.951468  1
  O  O49  1  0.750000  0.305253  0.936569  1
  O  O50  1  0.750000  0.297888  0.562451  1
  O  O51  1  0.250000  0.202112  0.062451  1
  O  O52  1  0.250000  0.194747  0.436569  1
  O  O53  1  0.750000  0.063894  0.451468  1
  O  O54  1  0.428165  0.131541  0.629316  1
  O  O55  1  0.071835  0.131541  0.629316  1
  O  O56  1  0.750000  0.043287  0.269408  1
  O  O57  1  0.750000  0.107132  0.064283  1
  O  O58  1  0.928180  0.085418  0.905744  1
  O  O59  1  0.571820  0.085418  0.905744  1
