# generated using pymatgen
data_LiCu(PO3)2
_symmetry_space_group_name_H-M   'P 1'
_cell_length_a   4.97864318
_cell_length_b   7.80584317
_cell_length_c   8.93016926
_cell_angle_alpha   65.43913394
_cell_angle_beta   89.63390337
_cell_angle_gamma   89.27059475
_symmetry_Int_Tables_number   1
_chemical_formula_structural   LiCu(PO3)2
_chemical_formula_sum   'Li2 Cu2 P4 O12'
_cell_volume   315.62207018
_cell_formula_units_Z   2
loop_
 _symmetry_equiv_pos_site_id
 _symmetry_equiv_pos_as_xyz
  1  'x, y, z'
loop_
 _atom_site_type_symbol
 _atom_site_label
 _atom_site_symmetry_multiplicity
 _atom_site_fract_x
 _atom_site_fract_y
 _atom_site_fract_z
 _atom_site_occupancy
  Li  Li0  1  0.642072  0.863304  0.307189  1
  Li  Li1  1  0.141795  0.094945  0.720508  1
  Cu  Cu2  1  0.136372  0.057844  0.372534  1
  Cu  Cu3  1  0.647140  0.089232  0.908680  1
  P  P4  1  0.183409  0.504477  0.091422  1
  P  P5  1  0.139688  0.898029  0.104866  1
  P  P6  1  0.630943  0.942615  0.617236  1
  P  P7  1  0.681694  0.520738  0.875104  1
  O  O8  1  0.467815  0.458006  0.025802  1
  O  O9  1  0.099701  0.342247  0.241945  1
  O  O10  1  0.242796  0.688867  0.107603  1
  O  O11  1  0.834527  0.889623  0.117793  1
  O  O12  1  0.343921  0.016318  0.584387  1
  O  O13  1  0.278848  0.895171  0.256815  1
  O  O14  1  0.792683  0.027106  0.712790  1
  O  O15  1  0.771814  0.924128  0.473656  1
  O  O16  1  0.707904  0.374131  0.811721  1
  O  O17  1  0.241891  0.042478  0.939835  1
  O  O18  1  0.578944  0.714265  0.754164  1
  O  O19  1  0.967544  0.557475  0.943452  1
