# generated using pymatgen
data_Li2MnO2F
_symmetry_space_group_name_H-M   'P 1'
_cell_length_a   5.10070932
_cell_length_b   5.20386469
_cell_length_c   9.89845246
_cell_angle_alpha   84.37755153
_cell_angle_beta   101.85357967
_cell_angle_gamma   119.16814452
_symmetry_Int_Tables_number   1
_chemical_formula_structural   Li2MnO2F
_chemical_formula_sum   'Li8 Mn4 O8 F4'
_cell_volume   224.52859858
_cell_formula_units_Z   4
loop_
 _symmetry_equiv_pos_site_id
 _symmetry_equiv_pos_as_xyz
  1  'x, y, z'
loop_
 _atom_site_type_symbol
 _atom_site_label
 _atom_site_symmetry_multiplicity
 _atom_site_fract_x
 _atom_site_fract_y
 _atom_site_fract_z
 _atom_site_occupancy
  Li  Li0  1  0.138215  0.820735  0.495085  1
  Li  Li1  1  0.000000  0.500000  0.000000  1
  Li  Li2  1  0.301887  0.132474  0.002963  1
  Li  Li3  1  0.059313  0.148833  0.252606  1
  Li  Li4  1  0.500000  0.500000  0.500000  1
  Li  Li5  1  0.940687  0.851167  0.747394  1
  Li  Li6  1  0.698113  0.867526  0.997037  1
  Li  Li7  1  0.861785  0.179265  0.504915  1
  Mn  Mn8  1  0.235689  0.494326  0.752317  1
  Mn  Mn9  1  0.412014  0.835541  0.250319  1
  Mn  Mn10  1  0.587986  0.164459  0.749681  1
  Mn  Mn11  1  0.764311  0.505674  0.247683  1
  O  O12  1  0.061467  0.828181  0.127161  1
  O  O13  1  0.313466  0.833212  0.853663  1
  O  O14  1  0.130459  0.525230  0.362431  1
  O  O15  1  0.236476  0.200495  0.641540  1
  O  O16  1  0.763524  0.799505  0.358460  1
  O  O17  1  0.869541  0.474770  0.637569  1
  O  O18  1  0.686534  0.166788  0.146337  1
  O  O19  1  0.938533  0.171819  0.872839  1
  F  F20  1  0.555232  0.833408  0.612155  1
  F  F21  1  0.619412  0.512538  0.880690  1
  F  F22  1  0.380588  0.487462  0.119310  1
  F  F23  1  0.444768  0.166592  0.387845  1
