# generated using pymatgen
data_RbVBP2HO9
_symmetry_space_group_name_H-M   'P 1'
_cell_length_a   9.53867546
_cell_length_b   8.47207584
_cell_length_c   9.82492122
_cell_angle_alpha   90.00000000
_cell_angle_beta   102.41465985
_cell_angle_gamma   90.00000000
_symmetry_Int_Tables_number   1
_chemical_formula_structural   RbVBP2HO9
_chemical_formula_sum   'Rb4 V4 B4 P8 H4 O36'
_cell_volume   775.41000276
_cell_formula_units_Z   4
loop_
 _symmetry_equiv_pos_site_id
 _symmetry_equiv_pos_as_xyz
  1  'x, y, z'
loop_
 _atom_site_type_symbol
 _atom_site_label
 _atom_site_symmetry_multiplicity
 _atom_site_fract_x
 _atom_site_fract_y
 _atom_site_fract_z
 _atom_site_occupancy
  Rb  Rb0  1  0.188721  0.398816  0.061752  1
  Rb  Rb1  1  0.188721  0.101184  0.561752  1
  Rb  Rb2  1  0.811279  0.898816  0.438248  1
  Rb  Rb3  1  0.811279  0.601184  0.938248  1
  V  V4  1  0.208357  0.652236  0.435405  1
  V  V5  1  0.208357  0.847764  0.935405  1
  V  V6  1  0.791643  0.152236  0.064595  1
  V  V7  1  0.791643  0.347764  0.564595  1
  B  B8  1  0.334130  0.057499  0.195578  1
  B  B9  1  0.334130  0.442501  0.695578  1
  B  B10  1  0.665870  0.557499  0.304422  1
  B  B11  1  0.665870  0.942501  0.804422  1
  P  P12  1  0.074622  0.935444  0.209423  1
  P  P13  1  0.074622  0.564556  0.709423  1
  P  P14  1  0.421559  0.739965  0.218422  1
  P  P15  1  0.421559  0.760035  0.718422  1
  P  P16  1  0.578441  0.239965  0.281578  1
  P  P17  1  0.578441  0.260035  0.781578  1
  P  P18  1  0.925378  0.435444  0.290577  1
  P  P19  1  0.925378  0.064556  0.790577  1
  H  H20  1  0.391552  0.084398  0.002222  1
  H  H21  1  0.391552  0.415602  0.502222  1
  H  H22  1  0.608448  0.584398  0.497778  1
  H  H23  1  0.608448  0.915602  0.997778  1
  O  O24  1  0.072581  0.513123  0.304787  1
  O  O25  1  0.102987  0.844154  0.348489  1
  O  O26  1  0.087318  0.833460  0.083167  1
  O  O27  1  0.072581  0.986877  0.804787  1
  O  O28  1  0.102987  0.655846  0.848489  1
  O  O29  1  0.191424  0.073813  0.227626  1
  O  O30  1  0.087318  0.666540  0.583167  1
  O  O31  1  0.191424  0.426187  0.727626  1
  O  O32  1  0.347317  0.630283  0.303833  1
  O  O33  1  0.309807  0.050468  0.039099  1
  O  O34  1  0.365881  0.719992  0.061108  1
  O  O35  1  0.413286  0.917475  0.262415  1
  O  O36  1  0.412288  0.203805  0.245434  1
  O  O37  1  0.347317  0.869717  0.803833  1
  O  O38  1  0.309807  0.449532  0.539099  1
  O  O39  1  0.365881  0.780008  0.561108  1
  O  O40  1  0.413286  0.582525  0.762415  1
  O  O41  1  0.412288  0.296195  0.745434  1
  O  O42  1  0.587712  0.703805  0.254566  1
  O  O43  1  0.586714  0.417475  0.237585  1
  O  O44  1  0.634119  0.219992  0.438892  1
  O  O45  1  0.690193  0.550468  0.460901  1
  O  O46  1  0.652683  0.130283  0.196167  1
  O  O47  1  0.587712  0.796195  0.754566  1
  O  O48  1  0.586714  0.082525  0.737585  1
  O  O49  1  0.634119  0.280008  0.938892  1
  O  O50  1  0.690193  0.949532  0.960901  1
  O  O51  1  0.652683  0.369717  0.696167  1
  O  O52  1  0.808576  0.573813  0.272374  1
  O  O53  1  0.912682  0.333460  0.416833  1
  O  O54  1  0.808576  0.926187  0.772374  1
  O  O55  1  0.897013  0.344154  0.151511  1
  O  O56  1  0.927419  0.013123  0.195213  1
  O  O57  1  0.912682  0.166540  0.916833  1
  O  O58  1  0.897013  0.155846  0.651511  1
  O  O59  1  0.927419  0.486877  0.695213  1
