# generated using pymatgen
data_Li2SiNiO4
_symmetry_space_group_name_H-M   'P 1'
_cell_length_a   5.35928084
_cell_length_b   10.45049081
_cell_length_c   12.78708153
_cell_angle_alpha   90.00000000
_cell_angle_beta   90.00000000
_cell_angle_gamma   90.00000000
_symmetry_Int_Tables_number   1
_chemical_formula_structural   Li2SiNiO4
_chemical_formula_sum   'Li16 Si8 Ni8 O32'
_cell_volume   716.16754790
_cell_formula_units_Z   8
loop_
 _symmetry_equiv_pos_site_id
 _symmetry_equiv_pos_as_xyz
  1  'x, y, z'
loop_
 _atom_site_type_symbol
 _atom_site_label
 _atom_site_symmetry_multiplicity
 _atom_site_fract_x
 _atom_site_fract_y
 _atom_site_fract_z
 _atom_site_occupancy
  Li  Li0  1  0.537664  0.029831  0.560050  1
  Li  Li1  1  0.042523  0.042849  0.941473  1
  Li  Li2  1  0.112396  0.782458  0.302602  1
  Li  Li3  1  0.619502  0.788073  0.194610  1
  Li  Li4  1  0.619502  0.711927  0.694610  1
  Li  Li5  1  0.112396  0.717542  0.802602  1
  Li  Li6  1  0.537664  0.470169  0.060050  1
  Li  Li7  1  0.042523  0.457151  0.441473  1
  Li  Li8  1  0.957477  0.542849  0.941473  1
  Li  Li9  1  0.462336  0.529831  0.560050  1
  Li  Li10  1  0.887604  0.282458  0.302602  1
  Li  Li11  1  0.380498  0.288073  0.194610  1
  Li  Li12  1  0.380498  0.211927  0.694610  1
  Li  Li13  1  0.887604  0.217542  0.802602  1
  Li  Li14  1  0.462336  0.970169  0.060050  1
  Li  Li15  1  0.957477  0.957151  0.441473  1
  Si  Si16  1  0.027140  0.968887  0.689713  1
  Si  Si17  1  0.467425  0.788625  0.438437  1
  Si  Si18  1  0.467425  0.711375  0.938437  1
  Si  Si19  1  0.027140  0.531113  0.189713  1
  Si  Si20  1  0.972860  0.468887  0.689713  1
  Si  Si21  1  0.532575  0.288625  0.438437  1
  Si  Si22  1  0.532575  0.211375  0.938437  1
  Si  Si23  1  0.972860  0.031113  0.189713  1
  Ni  Ni24  1  0.542679  0.962754  0.811774  1
  Ni  Ni25  1  0.968711  0.786897  0.058877  1
  Ni  Ni26  1  0.968711  0.713103  0.558877  1
  Ni  Ni27  1  0.542679  0.537246  0.311774  1
  Ni  Ni28  1  0.457321  0.462754  0.811774  1
  Ni  Ni29  1  0.031289  0.286897  0.058877  1
  Ni  Ni30  1  0.031289  0.213103  0.558877  1
  Ni  Ni31  1  0.457321  0.037246  0.311774  1
  O  O32  1  0.108472  0.972062  0.295671  1
  O  O33  1  0.673041  0.992939  0.191262  1
  O  O34  1  0.593699  0.931153  0.428513  1
  O  O35  1  0.090799  0.961268  0.084896  1
  O  O36  1  0.958086  0.813870  0.690122  1
  O  O37  1  0.469771  0.779011  0.821323  1
  O  O38  1  0.167101  0.805056  0.460980  1
  O  O39  1  0.599753  0.797774  0.030427  1
  O  O40  1  0.599753  0.702226  0.530427  1
  O  O41  1  0.167101  0.694944  0.960980  1
  O  O42  1  0.469771  0.720989  0.321324  1
  O  O43  1  0.958086  0.686130  0.190122  1
  O  O44  1  0.090799  0.538732  0.584896  1
  O  O45  1  0.593699  0.568847  0.928513  1
  O  O46  1  0.673041  0.507061  0.691262  1
  O  O47  1  0.108472  0.527938  0.795671  1
  O  O48  1  0.891528  0.472062  0.295671  1
  O  O49  1  0.326959  0.492939  0.191262  1
  O  O50  1  0.406301  0.431153  0.428513  1
  O  O51  1  0.909201  0.461268  0.084896  1
  O  O52  1  0.041914  0.313870  0.690122  1
  O  O53  1  0.530229  0.279011  0.821323  1
  O  O54  1  0.832899  0.305056  0.460980  1
  O  O55  1  0.400247  0.297774  0.030427  1
  O  O56  1  0.400247  0.202226  0.530427  1
  O  O57  1  0.832899  0.194944  0.960980  1
  O  O58  1  0.530229  0.220989  0.321324  1
  O  O59  1  0.041914  0.186130  0.190122  1
  O  O60  1  0.909201  0.038732  0.584896  1
  O  O61  1  0.406301  0.068847  0.928513  1
  O  O62  1  0.326959  0.007061  0.691262  1
  O  O63  1  0.891528  0.027938  0.795671  1
