# generated using pymatgen
data_Li4Ti3V3(SbO8)2
_symmetry_space_group_name_H-M   'P 1'
_cell_length_a   5.97975284
_cell_length_b   6.01188153
_cell_length_c   10.51684160
_cell_angle_alpha   90.38208559
_cell_angle_beta   89.96112003
_cell_angle_gamma   119.66865314
_symmetry_Int_Tables_number   1
_chemical_formula_structural   Li4Ti3V3(SbO8)2
_chemical_formula_sum   'Li4 Ti3 V3 Sb2 O16'
_cell_volume   328.50226539
_cell_formula_units_Z   1
loop_
 _symmetry_equiv_pos_site_id
 _symmetry_equiv_pos_as_xyz
  1  'x, y, z'
loop_
 _atom_site_type_symbol
 _atom_site_label
 _atom_site_symmetry_multiplicity
 _atom_site_fract_x
 _atom_site_fract_y
 _atom_site_fract_z
 _atom_site_occupancy
  Li  Li0  1  0.334061  0.665759  0.896991  1
  Li  Li1  1  0.999061  0.000174  0.993268  1
  Li  Li2  1  0.993991  0.991986  0.495150  1
  Li  Li3  1  0.668294  0.334435  0.388513  1
  Ti  Ti4  1  0.654791  0.822567  0.222558  1
  Ti  Ti5  1  0.168060  0.823254  0.222257  1
  Ti  Ti6  1  0.823924  0.652616  0.727599  1
  V  V7  1  0.170906  0.341078  0.212655  1
  V  V8  1  0.817329  0.165736  0.719109  1
  V  V9  1  0.339834  0.169919  0.714275  1
  Sb  Sb10  1  0.328809  0.661243  0.515458  1
  Sb  Sb11  1  0.667029  0.331740  0.013152  1
  O  O12  1  0.685527  0.844587  0.606229  1
  O  O13  1  0.486880  0.974793  0.318667  1
  O  O14  1  0.344329  0.687895  0.110109  1
  O  O15  1  0.995177  0.991000  0.311227  1
  O  O16  1  0.989722  0.992048  0.811314  1
  O  O17  1  0.159959  0.844503  0.607418  1
  O  O18  1  0.502630  0.518966  0.313471  1
  O  O19  1  0.017572  0.519874  0.313917  1
  O  O20  1  0.846506  0.692360  0.104464  1
  O  O21  1  0.144110  0.304338  0.611841  1
  O  O22  1  0.978681  0.492257  0.819538  1
  O  O23  1  0.515371  0.496614  0.818315  1
  O  O24  1  0.684705  0.348781  0.610447  1
  O  O25  1  0.843502  0.155974  0.107028  1
  O  O26  1  0.527101  0.020075  0.816514  1
  O  O27  1  0.312437  0.155426  0.106356  1
