# generated using pymatgen
data_Li2NbV3O8
_symmetry_space_group_name_H-M   'P 1'
_cell_length_a   6.47637063
_cell_length_b   6.47637063
_cell_length_c   6.72839096
_cell_angle_alpha   73.49922411
_cell_angle_beta   106.50077589
_cell_angle_gamma   142.98287462
_symmetry_Int_Tables_number   1
_chemical_formula_structural   Li2NbV3O8
_chemical_formula_sum   'Li2 Nb1 V3 O8'
_cell_volume   162.10600347
_cell_formula_units_Z   1
loop_
 _symmetry_equiv_pos_site_id
 _symmetry_equiv_pos_as_xyz
  1  'x, y, z'
loop_
 _atom_site_type_symbol
 _atom_site_label
 _atom_site_symmetry_multiplicity
 _atom_site_fract_x
 _atom_site_fract_y
 _atom_site_fract_z
 _atom_site_occupancy
  Li  Li0  1  0.944963  0.055037  0.637105  1
  Li  Li1  1  0.058150  0.941850  0.342995  1
  Nb  Nb2  1  0.291807  0.708193  0.719937  1
  V  V3  1  0.609571  0.390429  0.702732  1
  V  V4  1  0.390788  0.609212  0.312110  1
  V  V5  1  0.704966  0.295034  0.272479  1
  O  O6  1  0.879655  0.120345  0.327598  1
  O  O7  1  0.778139  0.221861  0.667988  1
  O  O8  1  0.648738  0.351262  0.993078  1
  O  O9  1  0.560429  0.439571  0.367130  1
  O  O10  1  0.435673  0.564327  0.645131  1
  O  O11  1  0.350278  0.649722  0.997942  1
  O  O12  1  0.228655  0.771345  0.344757  1
  O  O13  1  0.118191  0.881809  0.669016  1
