# generated using pymatgen
data_LiMnPCO7
_symmetry_space_group_name_H-M   'P 1'
_cell_length_a   6.23686941
_cell_length_b   8.34594032
_cell_length_c   10.22515521
_cell_angle_alpha   94.23238602
_cell_angle_beta   90.28515172
_cell_angle_gamma   90.96913589
_symmetry_Int_Tables_number   1
_chemical_formula_structural   LiMnPCO7
_chemical_formula_sum   'Li4 Mn4 P4 C4 O28'
_cell_volume   530.70755231
_cell_formula_units_Z   4
loop_
 _symmetry_equiv_pos_site_id
 _symmetry_equiv_pos_as_xyz
  1  'x, y, z'
loop_
 _atom_site_type_symbol
 _atom_site_label
 _atom_site_symmetry_multiplicity
 _atom_site_fract_x
 _atom_site_fract_y
 _atom_site_fract_z
 _atom_site_occupancy
  Li  Li0  1  0.967242  0.258771  0.876095  1
  Li  Li1  1  0.528817  0.260009  0.375744  1
  Li  Li2  1  0.471630  0.742190  0.622592  1
  Li  Li3  1  0.471870  0.739635  0.122932  1
  Mn  Mn4  1  0.249972  0.329382  0.603269  1
  Mn  Mn5  1  0.251786  0.329603  0.103368  1
  Mn  Mn6  1  0.753067  0.670242  0.896902  1
  Mn  Mn7  1  0.755733  0.670953  0.397333  1
  P  P8  1  0.749857  0.426300  0.637993  1
  P  P9  1  0.746073  0.425985  0.138330  1
  P  P10  1  0.247606  0.574595  0.861885  1
  P  P11  1  0.257259  0.574104  0.362335  1
  C  C12  1  0.250310  0.049229  0.645125  1
  C  C13  1  0.255276  0.049500  0.144874  1
  C  C14  1  0.745974  0.949955  0.854710  1
  C  C15  1  0.741690  0.950228  0.355121  1
  O  O16  1  0.253062  0.104013  0.527485  1
  O  O17  1  0.758658  0.091733  0.830143  1
  O  O18  1  0.234956  0.104228  0.027937  1
  O  O19  1  0.230822  0.171164  0.735768  1
  O  O20  1  0.726834  0.091848  0.331126  1
  O  O21  1  0.260289  0.171712  0.236330  1
  O  O22  1  0.945872  0.327423  0.595311  1
  O  O23  1  0.559064  0.312000  0.594457  1
  O  O24  1  0.941736  0.324793  0.095549  1
  O  O25  1  0.555335  0.313023  0.095709  1
  O  O26  1  0.226265  0.414945  0.928319  1
  O  O27  1  0.755162  0.465276  0.789397  1
  O  O28  1  0.271759  0.414398  0.428740  1
  O  O29  1  0.736044  0.465762  0.289576  1
  O  O30  1  0.274393  0.534728  0.711554  1
  O  O31  1  0.733867  0.585766  0.571519  1
  O  O32  1  0.276005  0.535159  0.211273  1
  O  O33  1  0.740156  0.585673  0.071649  1
  O  O34  1  0.056786  0.685142  0.892858  1
  O  O35  1  0.442346  0.677259  0.916079  1
  O  O36  1  0.445209  0.689376  0.410644  1
  O  O37  1  0.058816  0.671703  0.399536  1
  O  O38  1  0.726845  0.827210  0.764102  1
  O  O39  1  0.267154  0.907958  0.669450  1
  O  O40  1  0.740475  0.827564  0.263998  1
  O  O41  1  0.754696  0.895560  0.972342  1
  O  O42  1  0.270759  0.907604  0.168067  1
  O  O43  1  0.760101  0.896295  0.472477  1
