# generated using pymatgen
data_Li2CoBO4
_symmetry_space_group_name_H-M   'P 1'
_cell_length_a   4.78822833
_cell_length_b   6.03720137
_cell_length_c   10.20043050
_cell_angle_alpha   90.00000000
_cell_angle_beta   90.00000000
_cell_angle_gamma   90.00000000
_symmetry_Int_Tables_number   1
_chemical_formula_structural   Li2CoBO4
_chemical_formula_sum   'Li8 Co4 B4 O16'
_cell_volume   294.86893076
_cell_formula_units_Z   4
loop_
 _symmetry_equiv_pos_site_id
 _symmetry_equiv_pos_as_xyz
  1  'x, y, z'
loop_
 _atom_site_type_symbol
 _atom_site_label
 _atom_site_symmetry_multiplicity
 _atom_site_fract_x
 _atom_site_fract_y
 _atom_site_fract_z
 _atom_site_occupancy
  Li  Li0  1  0.758255  0.005080  0.658001  1
  Li  Li1  1  0.755608  0.239589  0.425569  1
  Li  Li2  1  0.755608  0.260411  0.925569  1
  Li  Li3  1  0.758255  0.494920  0.158001  1
  Li  Li4  1  0.258255  0.505080  0.841999  1
  Li  Li5  1  0.255608  0.739589  0.074431  1
  Li  Li6  1  0.255608  0.760411  0.574431  1
  Li  Li7  1  0.258255  0.994920  0.341999  1
  Co  Co8  1  0.260788  0.015095  0.836657  1
  Co  Co9  1  0.260788  0.484905  0.336657  1
  Co  Co10  1  0.760788  0.515095  0.663343  1
  Co  Co11  1  0.760788  0.984905  0.163343  1
  B  B12  1  0.263959  0.239113  0.091914  1
  B  B13  1  0.263959  0.260887  0.591914  1
  B  B14  1  0.763959  0.739113  0.408086  1
  B  B15  1  0.763959  0.760887  0.908086  1
  O  O16  1  0.149706  0.036961  0.157545  1
  O  O17  1  0.169558  0.052511  0.658675  1
  O  O18  1  0.171869  0.253124  0.451805  1
  O  O19  1  0.573370  0.230683  0.097487  1
  O  O20  1  0.573370  0.269317  0.597487  1
  O  O21  1  0.171869  0.246876  0.951805  1
  O  O22  1  0.169558  0.447489  0.158675  1
  O  O23  1  0.149706  0.463039  0.657545  1
  O  O24  1  0.649706  0.536961  0.342455  1
  O  O25  1  0.669558  0.552511  0.841325  1
  O  O26  1  0.671869  0.753124  0.048195  1
  O  O27  1  0.073370  0.730683  0.402513  1
  O  O28  1  0.073370  0.769317  0.902513  1
  O  O29  1  0.671869  0.746876  0.548195  1
  O  O30  1  0.669558  0.947489  0.341325  1
  O  O31  1  0.649706  0.963039  0.842455  1
