# generated using pymatgen
data_LuNbO4
_symmetry_space_group_name_H-M   'P 1'
_cell_length_a   5.08400317
_cell_length_b   5.45244789
_cell_length_c   5.26268123
_cell_angle_alpha   90.00000000
_cell_angle_beta   95.15025925
_cell_angle_gamma   90.00000000
_symmetry_Int_Tables_number   1
_chemical_formula_structural   LuNbO4
_chemical_formula_sum   'Lu2 Nb2 O8'
_cell_volume   145.29393221
_cell_formula_units_Z   2
loop_
 _symmetry_equiv_pos_site_id
 _symmetry_equiv_pos_as_xyz
  1  'x, y, z'
loop_
 _atom_site_type_symbol
 _atom_site_label
 _atom_site_symmetry_multiplicity
 _atom_site_fract_x
 _atom_site_fract_y
 _atom_site_fract_z
 _atom_site_occupancy
  Lu  Lu0  1  0.500000  0.235322  0.750000  1
  Lu  Lu1  1  0.500000  0.764678  0.250000  1
  Nb  Nb2  1  0.000000  0.704961  0.750000  1
  Nb  Nb3  1  0.000000  0.295039  0.250000  1
  O  O4  1  0.761464  0.435268  0.493026  1
  O  O5  1  0.746400  0.921731  0.588494  1
  O  O6  1  0.253600  0.921731  0.911506  1
  O  O7  1  0.238536  0.435268  0.006974  1
  O  O8  1  0.761464  0.564732  0.993026  1
  O  O9  1  0.746400  0.078269  0.088494  1
  O  O10  1  0.253600  0.078269  0.411506  1
  O  O11  1  0.238536  0.564732  0.506974  1
