# generated using pymatgen
data_KFeP4(H2O7)2
_symmetry_space_group_name_H-M   'P 1'
_cell_length_a   5.04944836
_cell_length_b   7.64508404
_cell_length_c   7.93911889
_cell_angle_alpha   81.39820679
_cell_angle_beta   83.00297898
_cell_angle_gamma   74.12393424
_symmetry_Int_Tables_number   1
_chemical_formula_structural   KFeP4(H2O7)2
_chemical_formula_sum   'K1 Fe1 P4 H4 O14'
_cell_volume   290.41466458
_cell_formula_units_Z   1
loop_
 _symmetry_equiv_pos_site_id
 _symmetry_equiv_pos_as_xyz
  1  'x, y, z'
loop_
 _atom_site_type_symbol
 _atom_site_label
 _atom_site_symmetry_multiplicity
 _atom_site_fract_x
 _atom_site_fract_y
 _atom_site_fract_z
 _atom_site_occupancy
  K  K0  1  0.000000  0.000000  0.000000  1
  Fe  Fe1  1  0.000000  0.500000  0.000000  1
  P  P2  1  0.315313  0.233099  0.318540  1
  P  P3  1  0.413709  0.604196  0.231556  1
  P  P4  1  0.586291  0.395804  0.768444  1
  P  P5  1  0.684687  0.766901  0.681460  1
  H  H6  1  0.115146  0.778054  0.417189  1
  H  H7  1  0.684590  0.005921  0.380854  1
  H  H8  1  0.315410  0.994079  0.619146  1
  H  H9  1  0.884854  0.221946  0.582811  1
  O  O10  1  0.168421  0.269531  0.155131  1
  O  O11  1  0.170609  0.161199  0.480923  1
  O  O12  1  0.250060  0.633261  0.075051  1
  O  O13  1  0.280599  0.410756  0.808219  1
  O  O14  1  0.367056  0.424714  0.353213  1
  O  O15  1  0.297539  0.765628  0.341698  1
  O  O16  1  0.610768  0.100770  0.281670  1
  O  O17  1  0.389232  0.899230  0.718330  1
  O  O18  1  0.702461  0.234372  0.658302  1
  O  O19  1  0.632944  0.575286  0.646787  1
  O  O20  1  0.719401  0.589244  0.191781  1
  O  O21  1  0.749940  0.366739  0.924949  1
  O  O22  1  0.829391  0.838801  0.519077  1
  O  O23  1  0.831579  0.730469  0.844869  1
