# generated using pymatgen
data_PH6(NO)2
_symmetry_space_group_name_H-M   'P 1'
_cell_length_a   7.04153479
_cell_length_b   8.34161103
_cell_length_c   7.79657933
_cell_angle_alpha   90.00000000
_cell_angle_beta   116.60596624
_cell_angle_gamma   90.00000000
_symmetry_Int_Tables_number   1
_chemical_formula_structural   PH6(NO)2
_chemical_formula_sum   'P4 H24 N8 O8'
_cell_volume   409.45969271
_cell_formula_units_Z   4
loop_
 _symmetry_equiv_pos_site_id
 _symmetry_equiv_pos_as_xyz
  1  'x, y, z'
loop_
 _atom_site_type_symbol
 _atom_site_label
 _atom_site_symmetry_multiplicity
 _atom_site_fract_x
 _atom_site_fract_y
 _atom_site_fract_z
 _atom_site_occupancy
  P  P0  1  0.147892  0.526415  0.132312  1
  P  P1  1  0.352108  0.026415  0.867688  1
  P  P2  1  0.852108  0.473585  0.867688  1
  P  P3  1  0.647892  0.973585  0.132312  1
  H  H4  1  0.180270  0.795042  0.070666  1
  H  H5  1  0.319730  0.295042  0.929334  1
  H  H6  1  0.819730  0.204958  0.929334  1
  H  H7  1  0.680270  0.704958  0.070666  1
  H  H8  1  0.060117  0.773219  0.210884  1
  H  H9  1  0.439883  0.273219  0.789116  1
  H  H10  1  0.939883  0.226781  0.789116  1
  H  H11  1  0.560117  0.726781  0.210884  1
  H  H12  1  0.132150  0.594095  0.692071  1
  H  H13  1  0.367850  0.094095  0.307929  1
  H  H14  1  0.867850  0.405905  0.307929  1
  H  H15  1  0.632150  0.905905  0.692071  1
  H  H16  1  0.400383  0.569800  0.755466  1
  H  H17  1  0.099617  0.069800  0.244534  1
  H  H18  1  0.599617  0.430200  0.244534  1
  H  H19  1  0.900383  0.930200  0.755466  1
  H  H20  1  0.216327  0.570274  0.521116  1
  H  H21  1  0.283673  0.070274  0.478884  1
  H  H22  1  0.783673  0.429726  0.478884  1
  H  H23  1  0.716327  0.929726  0.521116  1
  H  H24  1  0.279301  0.742876  0.657755  1
  H  H25  1  0.220699  0.242876  0.342245  1
  H  H26  1  0.720699  0.257124  0.342245  1
  H  H27  1  0.779301  0.757124  0.657755  1
  N  N28  1  0.170568  0.723952  0.174811  1
  N  N29  1  0.329432  0.223952  0.825189  1
  N  N30  1  0.829432  0.276048  0.825189  1
  N  N31  1  0.670568  0.776048  0.174811  1
  N  N32  1  0.255167  0.619058  0.656325  1
  N  N33  1  0.244833  0.119058  0.343675  1
  N  N34  1  0.744833  0.380942  0.343675  1
  N  N35  1  0.755167  0.880942  0.656325  1
  O  O36  1  0.332551  0.472700  0.095299  1
  O  O37  1  0.167449  0.972700  0.904701  1
  O  O38  1  0.667449  0.527300  0.904701  1
  O  O39  1  0.832552  0.027300  0.095299  1
  O  O40  1  0.124653  0.447503  0.300755  1
  O  O41  1  0.375347  0.947503  0.699245  1
  O  O42  1  0.875347  0.552497  0.699245  1
  O  O43  1  0.624653  0.052497  0.300755  1
