# generated using pymatgen
data_VF5
_symmetry_space_group_name_H-M   'P 1'
_cell_length_a   5.58127220
_cell_length_b   9.96408134
_cell_length_c   7.34184171
_cell_angle_alpha   90.00000000
_cell_angle_beta   90.02736713
_cell_angle_gamma   90.00000000
_symmetry_Int_Tables_number   1
_chemical_formula_structural   VF5
_chemical_formula_sum   'V4 F20'
_cell_volume   408.29629145
_cell_formula_units_Z   4
loop_
 _symmetry_equiv_pos_site_id
 _symmetry_equiv_pos_as_xyz
  1  'x, y, z'
loop_
 _atom_site_type_symbol
 _atom_site_label
 _atom_site_symmetry_multiplicity
 _atom_site_fract_x
 _atom_site_fract_y
 _atom_site_fract_z
 _atom_site_occupancy
  V  V0  1  0.016324  0.390064  0.077066  1
  V  V1  1  0.484229  0.780326  0.613765  1
  V  V2  1  0.515771  0.280326  0.386235  1
  V  V3  1  0.983676  0.890064  0.922934  1
  F  F4  1  0.012439  0.263352  0.909216  1
  F  F5  1  0.026174  0.469576  0.292516  1
  F  F6  1  0.221712  0.768536  0.799323  1
  F  F7  1  0.234781  0.489430  0.974985  1
  F  F8  1  0.225169  0.980984  0.008718  1
  F  F9  1  0.270341  0.788473  0.441166  1
  F  F10  1  0.274255  0.289411  0.536196  1
  F  F11  1  0.273057  0.273028  0.182812  1
  F  F12  1  0.475060  0.952287  0.672693  1
  F  F13  1  0.482889  0.604939  0.643829  1
  F  F14  1  0.517111  0.104939  0.356171  1
  F  F15  1  0.524940  0.452287  0.327307  1
  F  F16  1  0.726943  0.773028  0.817188  1
  F  F17  1  0.725745  0.789411  0.463804  1
  F  F18  1  0.729659  0.288473  0.558834  1
  F  F19  1  0.774831  0.480984  0.991282  1
  F  F20  1  0.765219  0.989430  0.025015  1
  F  F21  1  0.778288  0.268536  0.200677  1
  F  F22  1  0.973826  0.969576  0.707484  1
  F  F23  1  0.987561  0.763352  0.090784  1
