# generated using pymatgen
data_LiFe2P3O11
_symmetry_space_group_name_H-M   'P 1'
_cell_length_a   7.23479731
_cell_length_b   7.23479731
_cell_length_c   8.84212578
_cell_angle_alpha   70.11795647
_cell_angle_beta   109.88204353
_cell_angle_gamma   105.98343485
_symmetry_Int_Tables_number   1
_chemical_formula_structural   LiFe2P3O11
_chemical_formula_sum   'Li2 Fe4 P6 O22'
_cell_volume   402.55956889
_cell_formula_units_Z   2
loop_
 _symmetry_equiv_pos_site_id
 _symmetry_equiv_pos_as_xyz
  1  'x, y, z'
loop_
 _atom_site_type_symbol
 _atom_site_label
 _atom_site_symmetry_multiplicity
 _atom_site_fract_x
 _atom_site_fract_y
 _atom_site_fract_z
 _atom_site_occupancy
  Li  Li0  1  0.014006  0.516400  0.262230  1
  Li  Li1  1  0.516400  0.014006  0.737770  1
  Fe  Fe2  1  0.642580  0.887354  0.202884  1
  Fe  Fe3  1  0.113736  0.357092  0.703997  1
  Fe  Fe4  1  0.887354  0.642580  0.797116  1
  Fe  Fe5  1  0.357092  0.113736  0.296003  1
  P  P6  1  0.323714  0.550158  0.034869  1
  P  P7  1  0.957163  0.957163  0.000000  1
  P  P8  1  0.450269  0.678379  0.534014  1
  P  P9  1  0.550158  0.323714  0.965131  1
  P  P10  1  0.042385  0.042385  0.500000  1
  P  P11  1  0.678379  0.450269  0.465986  1
  O  O12  1  0.119740  0.987714  0.158361  1
  O  O13  1  0.010099  0.880050  0.657764  1
  O  O14  1  0.383541  0.757547  0.059866  1
  O  O15  1  0.151794  0.533228  0.874151  1
  O  O16  1  0.274505  0.384913  0.186805  1
  O  O17  1  0.743102  0.954767  0.007102  1
  O  O18  1  0.239391  0.616207  0.553556  1
  O  O19  1  0.512521  0.512521  0.000000  1
  O  O20  1  0.467437  0.850014  0.373397  1
  O  O21  1  0.612693  0.728608  0.686354  1
  O  O22  1  0.045404  0.256680  0.507626  1
  O  O23  1  0.954767  0.743102  0.992898  1
  O  O24  1  0.384913  0.274505  0.813195  1
  O  O25  1  0.533228  0.151794  0.125849  1
  O  O26  1  0.489778  0.489778  0.500000  1
  O  O27  1  0.757547  0.383541  0.940134  1
  O  O28  1  0.256680  0.045404  0.492374  1
  O  O29  1  0.728608  0.612693  0.313646  1
  O  O30  1  0.850014  0.467437  0.626603  1
  O  O31  1  0.616207  0.239391  0.446444  1
  O  O32  1  0.987714  0.119740  0.841639  1
  O  O33  1  0.880050  0.010099  0.342236  1
