# generated using pymatgen
data_Ho2B4O9
_symmetry_space_group_name_H-M   'P 1'
_cell_length_a   6.18562563
_cell_length_b   6.44568259
_cell_length_c   7.48688190
_cell_angle_alpha   102.51358744
_cell_angle_beta   97.13334172
_cell_angle_gamma   102.41791305
_symmetry_Int_Tables_number   1
_chemical_formula_structural   Ho2B4O9
_chemical_formula_sum   'Ho4 B8 O18'
_cell_volume   279.99494434
_cell_formula_units_Z   2
loop_
 _symmetry_equiv_pos_site_id
 _symmetry_equiv_pos_as_xyz
  1  'x, y, z'
loop_
 _atom_site_type_symbol
 _atom_site_label
 _atom_site_symmetry_multiplicity
 _atom_site_fract_x
 _atom_site_fract_y
 _atom_site_fract_z
 _atom_site_occupancy
  Ho  Ho0  1  0.112759  0.322864  0.640458  1
  Ho  Ho1  1  0.450568  0.909022  0.712692  1
  Ho  Ho2  1  0.549432  0.090978  0.287308  1
  Ho  Ho3  1  0.887241  0.677136  0.359542  1
  B  B4  1  0.005628  0.854363  0.810386  1
  B  B5  1  0.268912  0.666241  0.018615  1
  B  B6  1  0.373641  0.643293  0.349059  1
  B  B7  1  0.338464  0.317923  0.072833  1
  B  B8  1  0.661536  0.682077  0.927167  1
  B  B9  1  0.626359  0.356707  0.650941  1
  B  B10  1  0.731088  0.333759  0.981385  1
  B  B11  1  0.994372  0.145637  0.189614  1
  O  O12  1  0.069489  0.955687  0.674888  1
  O  O13  1  0.139722  0.717596  0.856423  1
  O  O14  1  0.226133  0.428221  0.957560  1
  O  O15  1  0.219171  0.594898  0.478042  1
  O  O16  1  0.236137  0.736871  0.211430  1
  O  O17  1  0.187626  0.131733  0.120761  1
  O  O18  1  0.420157  0.182137  0.554698  1
  O  O19  1  0.495202  0.209033  0.979446  1
  O  O20  1  0.539546  0.537676  0.747690  1
  O  O21  1  0.460454  0.462324  0.252310  1
  O  O22  1  0.504798  0.790967  0.020554  1
  O  O23  1  0.579843  0.817863  0.445302  1
  O  O24  1  0.812374  0.868267  0.879239  1
  O  O25  1  0.763863  0.263129  0.788570  1
  O  O26  1  0.780829  0.405102  0.521958  1
  O  O27  1  0.773867  0.571779  0.042440  1
  O  O28  1  0.860278  0.282404  0.143577  1
  O  O29  1  0.930511  0.044313  0.325112  1
