# generated using pymatgen
data_Li3AgF4
_symmetry_space_group_name_H-M   'P 1'
_cell_length_a   8.85312825
_cell_length_b   8.91054950
_cell_length_c   11.06890466
_cell_angle_alpha   99.48709868
_cell_angle_beta   97.80424951
_cell_angle_gamma   104.32696363
_symmetry_Int_Tables_number   1
_chemical_formula_structural   Li3AgF4
_chemical_formula_sum   'Li24 Ag8 F32'
_cell_volume   820.08833262
_cell_formula_units_Z   8
loop_
 _symmetry_equiv_pos_site_id
 _symmetry_equiv_pos_as_xyz
  1  'x, y, z'
loop_
 _atom_site_type_symbol
 _atom_site_label
 _atom_site_symmetry_multiplicity
 _atom_site_fract_x
 _atom_site_fract_y
 _atom_site_fract_z
 _atom_site_occupancy
  Li  Li0  1  0.006418  0.893355  0.353392  1
  Li  Li1  1  0.007605  0.636451  0.201843  1
  Li  Li2  1  0.129515  0.861480  0.733701  1
  Li  Li3  1  0.017365  0.120839  0.689060  1
  Li  Li4  1  0.139375  0.507364  0.691186  1
  Li  Li5  1  0.139531  0.393972  0.249112  1
  Li  Li6  1  0.164156  0.019380  0.199838  1
  Li  Li7  1  0.377689  0.495799  0.853744  1
  Li  Li8  1  0.501665  0.897834  0.923285  1
  Li  Li9  1  0.391606  0.648454  0.243363  1
  Li  Li10  1  0.372184  0.115616  0.743889  1
  Li  Li11  1  0.514175  0.650707  0.696744  1
  Li  Li12  1  0.416592  0.026847  0.439328  1
  Li  Li13  1  0.502982  0.384268  0.353685  1
  Li  Li14  1  0.640964  0.893651  0.246856  1
  Li  Li15  1  0.608272  0.375367  0.726425  1
  Li  Li16  1  0.513744  0.133357  0.199677  1
  Li  Li17  1  0.650216  0.519022  0.198695  1
  Li  Li18  1  0.871931  0.985439  0.847240  1
  Li  Li19  1  0.622930  0.006552  0.697456  1
  Li  Li20  1  0.871575  0.615353  0.735075  1
  Li  Li21  1  0.904998  0.524838  0.432192  1
  Li  Li22  1  0.985489  0.363829  0.844250  1
  Li  Li23  1  0.890698  0.145025  0.243675  1
  Ag  Ag24  1  0.162721  0.746546  0.998242  1
  Ag  Ag25  1  0.257369  0.691865  0.485042  1
  Ag  Ag26  1  0.200278  0.270859  0.495149  1
  Ag  Ag27  1  0.265971  0.194002  0.000961  1
  Ag  Ag28  1  0.688633  0.768270  0.492876  1
  Ag  Ag29  1  0.769837  0.688663  0.994933  1
  Ag  Ag30  1  0.683671  0.262916  0.991310  1
  Ag  Ag31  1  0.769417  0.191115  0.500161  1
  F  F32  1  0.022526  0.694779  0.375508  1
  F  F33  1  0.036930  0.645802  0.633968  1
  F  F34  1  0.031899  0.175518  0.866321  1
  F  F35  1  0.175540  0.523858  0.865721  1
  F  F36  1  0.328629  0.954755  0.845384  1
  F  F37  1  0.077655  0.182115  0.169667  1
  F  F38  1  0.179130  0.569570  0.166112  1
  F  F39  1  0.170416  0.033449  0.645998  1
  F  F40  1  0.326166  0.984967  0.117778  1
  F  F41  1  0.331572  0.476898  0.664988  1
  F  F42  1  0.209254  0.037083  0.376336  1
  F  F43  1  0.339084  0.479664  0.359692  1
  F  F44  1  0.479900  0.814165  0.625673  1
  F  F45  1  0.479324  0.851341  0.356521  1
  F  F46  1  0.529937  0.693803  0.874747  1
  F  F47  1  0.460132  0.321084  0.849370  1
  F  F48  1  0.488121  0.326934  0.166375  1
  F  F49  1  0.571609  0.682767  0.161862  1
  F  F50  1  0.533459  0.154520  0.636439  1
  F  F51  1  0.538867  0.191251  0.376048  1
  F  F52  1  0.665799  0.557028  0.648409  1
  F  F53  1  0.816397  0.979974  0.661898  1
  F  F54  1  0.699195  0.534785  0.373679  1
  F  F55  1  0.675994  0.024707  0.871184  1
  F  F56  1  0.842235  0.988473  0.356457  1
  F  F57  1  0.815548  0.450508  0.832869  1
  F  F58  1  0.678416  0.059419  0.152013  1
  F  F59  1  0.962016  0.815674  0.844098  1
  F  F60  1  0.817527  0.495087  0.122339  1
  F  F61  1  0.994030  0.832034  0.165234  1
  F  F62  1  0.990984  0.309772  0.652561  1
  F  F63  1  0.976569  0.349973  0.362519  1
