# generated using pymatgen
data_Li2TiV3O8
_symmetry_space_group_name_H-M   'P 1'
_cell_length_a   8.35539147
_cell_length_b   8.50524319
_cell_length_c   8.52062274
_cell_angle_alpha   90.00000000
_cell_angle_beta   90.00000000
_cell_angle_gamma   90.00000000
_symmetry_Int_Tables_number   1
_chemical_formula_structural   Li2TiV3O8
_chemical_formula_sum   'Li8 Ti4 V12 O32'
_cell_volume   605.51495720
_cell_formula_units_Z   4
loop_
 _symmetry_equiv_pos_site_id
 _symmetry_equiv_pos_as_xyz
  1  'x, y, z'
loop_
 _atom_site_type_symbol
 _atom_site_label
 _atom_site_symmetry_multiplicity
 _atom_site_fract_x
 _atom_site_fract_y
 _atom_site_fract_z
 _atom_site_occupancy
  Li  Li0  1  0.749010  0.749540  0.750752  1
  Li  Li1  1  0.504077  0.503001  0.501884  1
  Li  Li2  1  0.495923  0.003001  0.998116  1
  Li  Li3  1  0.250990  0.249540  0.749248  1
  Li  Li4  1  0.249010  0.750460  0.249248  1
  Li  Li5  1  0.004077  0.996999  0.498116  1
  Li  Li6  1  0.995923  0.496999  0.001884  1
  Li  Li7  1  0.750990  0.250460  0.250752  1
  Ti  Ti8  1  0.619768  0.373957  0.877906  1
  Ti  Ti9  1  0.380232  0.873957  0.622094  1
  Ti  Ti10  1  0.119768  0.126043  0.122094  1
  Ti  Ti11  1  0.880232  0.626043  0.377906  1
  V  V12  1  0.631722  0.127028  0.626249  1
  V  V13  1  0.628142  0.878340  0.375923  1
  V  V14  1  0.626156  0.626194  0.124172  1
  V  V15  1  0.373844  0.126194  0.375828  1
  V  V16  1  0.371858  0.378340  0.124077  1
  V  V17  1  0.368278  0.627028  0.873751  1
  V  V18  1  0.131722  0.372972  0.373751  1
  V  V19  1  0.128142  0.621660  0.624077  1
  V  V20  1  0.126156  0.873806  0.875828  1
  V  V21  1  0.873844  0.373806  0.624172  1
  V  V22  1  0.871858  0.121660  0.875923  1
  V  V23  1  0.868278  0.872972  0.126249  1
  O  O24  1  0.632494  0.361494  0.638617  1
  O  O25  1  0.628719  0.141861  0.861994  1
  O  O26  1  0.645299  0.871686  0.130788  1
  O  O27  1  0.612902  0.890141  0.619169  1
  O  O28  1  0.643052  0.637878  0.360809  1
  O  O29  1  0.616975  0.114291  0.392108  1
  O  O30  1  0.613481  0.382895  0.107446  1
  O  O31  1  0.606790  0.610843  0.884029  1
  O  O32  1  0.393210  0.110843  0.615971  1
  O  O33  1  0.386519  0.882895  0.392554  1
  O  O34  1  0.383025  0.614291  0.107892  1
  O  O35  1  0.356948  0.137878  0.139191  1
  O  O36  1  0.387098  0.390141  0.880831  1
  O  O37  1  0.354701  0.371686  0.369212  1
  O  O38  1  0.371281  0.641861  0.638006  1
  O  O39  1  0.367506  0.861494  0.861383  1
  O  O40  1  0.132494  0.138506  0.361383  1
  O  O41  1  0.128719  0.358139  0.138006  1
  O  O42  1  0.145299  0.628314  0.869212  1
  O  O43  1  0.112902  0.609859  0.380831  1
  O  O44  1  0.143052  0.862122  0.639191  1
  O  O45  1  0.116975  0.385709  0.607892  1
  O  O46  1  0.113481  0.117105  0.892554  1
  O  O47  1  0.106790  0.889157  0.115971  1
  O  O48  1  0.893210  0.389157  0.384029  1
  O  O49  1  0.886519  0.617105  0.607446  1
  O  O50  1  0.883025  0.885709  0.892108  1
  O  O51  1  0.856948  0.362122  0.860809  1
  O  O52  1  0.887098  0.109859  0.119169  1
  O  O53  1  0.854701  0.128314  0.630788  1
  O  O54  1  0.871281  0.858139  0.361994  1
  O  O55  1  0.867506  0.638506  0.138617  1
