# generated using pymatgen
data_Li6FeO5F
_symmetry_space_group_name_H-M   'P 1'
_cell_length_a   5.53055193
_cell_length_b   5.62061648
_cell_length_c   10.54690045
_cell_angle_alpha   91.38645788
_cell_angle_beta   89.86866550
_cell_angle_gamma   119.09355186
_symmetry_Int_Tables_number   1
_chemical_formula_structural   Li6FeO5F
_chemical_formula_sum   'Li12 Fe2 O10 F2'
_cell_volume   286.38483053
_cell_formula_units_Z   2
loop_
 _symmetry_equiv_pos_site_id
 _symmetry_equiv_pos_as_xyz
  1  'x, y, z'
loop_
 _atom_site_type_symbol
 _atom_site_label
 _atom_site_symmetry_multiplicity
 _atom_site_fract_x
 _atom_site_fract_y
 _atom_site_fract_z
 _atom_site_occupancy
  Li  Li0  1  0.978572  0.319768  0.237556  1
  Li  Li1  1  0.656679  0.330295  0.070957  1
  Li  Li2  1  0.684732  0.325453  0.567644  1
  Li  Li3  1  0.739340  0.716567  0.235979  1
  Li  Li4  1  0.336700  0.975970  0.257744  1
  Li  Li5  1  0.384559  0.381317  0.364223  1
  Li  Li6  1  0.634596  0.961839  0.747672  1
  Li  Li7  1  0.336758  0.324960  0.740726  1
  Li  Li8  1  0.347054  0.665520  0.067681  1
  Li  Li9  1  0.325334  0.658038  0.574531  1
  Li  Li10  1  0.994117  0.379208  0.862699  1
  Li  Li11  1  0.989934  0.723335  0.743396  1
  Fe  Fe12  1  0.008644  0.001504  0.999199  1
  Fe  Fe13  1  0.999269  0.998276  0.499213  1
  O  O14  1  0.985902  0.028777  0.828679  1
  O  O15  1  0.027959  0.038840  0.329415  1
  O  O16  1  0.682588  0.973193  0.554568  1
  O  O17  1  0.994684  0.700657  0.561584  1
  O  O18  1  0.650557  0.340256  0.266063  1
  O  O19  1  0.714622  0.693599  0.048586  1
  O  O20  1  0.320450  0.302391  0.544239  1
  O  O21  1  0.287562  0.643672  0.765040  1
  O  O22  1  0.008021  0.317147  0.043611  1
  O  O23  1  0.296826  0.994324  0.073440  1
  F  F24  1  0.680960  0.333931  0.766328  1
  F  F25  1  0.347661  0.644541  0.266896  1
