# generated using pymatgen
data_Li2V2P7HO24
_symmetry_space_group_name_H-M   'P 1'
_cell_length_a   4.99079948
_cell_length_b   18.01494078
_cell_length_c   10.46444783
_cell_angle_alpha   90.00000000
_cell_angle_beta   96.43079583
_cell_angle_gamma   90.00000000
_symmetry_Int_Tables_number   1
_chemical_formula_structural   Li2V2P7HO24
_chemical_formula_sum   'Li4 V4 P14 H2 O48'
_cell_volume   934.92764699
_cell_formula_units_Z   2
loop_
 _symmetry_equiv_pos_site_id
 _symmetry_equiv_pos_as_xyz
  1  'x, y, z'
loop_
 _atom_site_type_symbol
 _atom_site_label
 _atom_site_symmetry_multiplicity
 _atom_site_fract_x
 _atom_site_fract_y
 _atom_site_fract_z
 _atom_site_occupancy
  Li  Li0  1  0.127706  0.250000  0.646722  1
  Li  Li1  1  0.465070  0.750000  0.058125  1
  Li  Li2  1  0.534930  0.250000  0.941875  1
  Li  Li3  1  0.872294  0.750000  0.353278  1
  V  V4  1  0.177426  0.523143  0.806038  1
  V  V5  1  0.177426  0.976857  0.806038  1
  V  V6  1  0.822574  0.023143  0.193962  1
  V  V7  1  0.822574  0.476857  0.193962  1
  P  P8  1  0.161964  0.873913  0.536584  1
  P  P9  1  0.161964  0.626087  0.536584  1
  P  P10  1  0.410876  0.750000  0.689820  1
  P  P11  1  0.281125  0.096428  0.047109  1
  P  P12  1  0.281125  0.403572  0.047109  1
  P  P13  1  0.355957  0.914246  0.293540  1
  P  P14  1  0.355957  0.585754  0.293540  1
  P  P15  1  0.644043  0.414246  0.706460  1
  P  P16  1  0.644043  0.085754  0.706460  1
  P  P17  1  0.718875  0.903572  0.952891  1
  P  P18  1  0.718875  0.596428  0.952891  1
  P  P19  1  0.589124  0.250000  0.310180  1
  P  P20  1  0.838036  0.126087  0.463416  1
  P  P21  1  0.838036  0.373913  0.463416  1
  H  H22  1  0.111005  0.250000  0.252045  1
  H  H23  1  0.888995  0.750000  0.747955  1
  O  O24  1  0.065158  0.331775  0.531289  1
  O  O25  1  0.065158  0.168225  0.531289  1
  O  O26  1  0.014496  0.402031  0.111221  1
  O  O27  1  0.014496  0.097969  0.111221  1
  O  O28  1  0.184006  0.750000  0.770682  1
  O  O29  1  0.093742  0.925015  0.645101  1
  O  O30  1  0.093742  0.574985  0.645101  1
  O  O31  1  0.260533  0.474965  0.959829  1
  O  O32  1  0.260533  0.025035  0.959829  1
  O  O33  1  0.140060  0.968435  0.226400  1
  O  O34  1  0.140060  0.531565  0.226400  1
  O  O35  1  0.335240  0.335759  0.974232  1
  O  O36  1  0.335240  0.164241  0.974232  1
  O  O37  1  0.319882  0.925474  0.445800  1
  O  O38  1  0.319882  0.574526  0.445800  1
  O  O39  1  0.325241  0.835630  0.252842  1
  O  O40  1  0.325241  0.664370  0.252842  1
  O  O41  1  0.405047  0.820094  0.594966  1
  O  O42  1  0.405047  0.679906  0.594966  1
  O  O43  1  0.312610  0.250000  0.233272  1
  O  O44  1  0.365527  0.450591  0.716687  1
  O  O45  1  0.365527  0.049409  0.716687  1
  O  O46  1  0.488111  0.920551  0.840887  1
  O  O47  1  0.488111  0.579449  0.840887  1
  O  O48  1  0.511889  0.420551  0.159113  1
  O  O49  1  0.511889  0.079449  0.159113  1
  O  O50  1  0.634473  0.549409  0.283313  1
  O  O51  1  0.634473  0.950591  0.283313  1
  O  O52  1  0.687390  0.750000  0.766728  1
  O  O53  1  0.594953  0.179906  0.405034  1
  O  O54  1  0.594953  0.320094  0.405034  1
  O  O55  1  0.674759  0.164370  0.747158  1
  O  O56  1  0.674759  0.335630  0.747158  1
  O  O57  1  0.680118  0.425474  0.554200  1
  O  O58  1  0.680118  0.074526  0.554200  1
  O  O59  1  0.664760  0.835759  0.025768  1
  O  O60  1  0.664760  0.664241  0.025768  1
  O  O61  1  0.859940  0.031565  0.773600  1
  O  O62  1  0.859940  0.468435  0.773600  1
  O  O63  1  0.739467  0.974965  0.040171  1
  O  O64  1  0.739467  0.525035  0.040171  1
  O  O65  1  0.906258  0.074985  0.354899  1
  O  O66  1  0.906258  0.425015  0.354899  1
  O  O67  1  0.815994  0.250000  0.229318  1
  O  O68  1  0.985504  0.902031  0.888779  1
  O  O69  1  0.985504  0.597969  0.888779  1
  O  O70  1  0.934842  0.668225  0.468711  1
  O  O71  1  0.934842  0.831775  0.468711  1
