# generated using pymatgen
data_V3CoSn2(PO4)6
_symmetry_space_group_name_H-M   'P 1'
_cell_length_a   8.94686155
_cell_length_b   8.94686155
_cell_length_c   8.94686155
_cell_angle_alpha   57.21802360
_cell_angle_beta   57.21802360
_cell_angle_gamma   57.21802360
_symmetry_Int_Tables_number   1
_chemical_formula_structural   V3CoSn2(PO4)6
_chemical_formula_sum   'V3 Co1 Sn2 P6 O24'
_cell_volume   473.95560420
_cell_formula_units_Z   1
loop_
 _symmetry_equiv_pos_site_id
 _symmetry_equiv_pos_as_xyz
  1  'x, y, z'
loop_
 _atom_site_type_symbol
 _atom_site_label
 _atom_site_symmetry_multiplicity
 _atom_site_fract_x
 _atom_site_fract_y
 _atom_site_fract_z
 _atom_site_occupancy
  V  V0  1  0.647322  0.647322  0.647322  1
  V  V1  1  0.854552  0.854552  0.854552  1
  V  V2  1  0.351338  0.351338  0.351338  1
  Co  Co3  1  0.148600  0.148600  0.148600  1
  Sn  Sn4  1  0.008571  0.008571  0.008571  1
  Sn  Sn5  1  0.499928  0.499928  0.499928  1
  P  P6  1  0.248688  0.533573  0.963817  1
  P  P7  1  0.963817  0.248688  0.533573  1
  P  P8  1  0.533573  0.963817  0.248688  1
  P  P9  1  0.464640  0.036477  0.749467  1
  P  P10  1  0.036477  0.749467  0.464640  1
  P  P11  1  0.749467  0.464640  0.036477  1
  O  O12  1  0.129638  0.284145  0.506831  1
  O  O13  1  0.506831  0.129638  0.284145  1
  O  O14  1  0.284145  0.506831  0.129638  1
  O  O15  1  0.076529  0.720595  0.936379  1
  O  O16  1  0.220135  0.369039  0.985119  1
  O  O17  1  0.423695  0.565976  0.779178  1
  O  O18  1  0.936379  0.076529  0.720595  1
  O  O19  1  0.779178  0.423695  0.565976  1
  O  O20  1  0.630207  0.006960  0.784605  1
  O  O21  1  0.565976  0.779178  0.423695  1
  O  O22  1  0.278988  0.057941  0.924703  1
  O  O23  1  0.006960  0.784605  0.630207  1
  O  O24  1  0.985119  0.220135  0.369039  1
  O  O25  1  0.720595  0.936379  0.076529  1
  O  O26  1  0.439347  0.220996  0.573724  1
  O  O27  1  0.369039  0.985119  0.220135  1
  O  O28  1  0.220996  0.573724  0.439347  1
  O  O29  1  0.057941  0.924703  0.278988  1
  O  O30  1  0.573724  0.439347  0.220996  1
  O  O31  1  0.784605  0.630207  0.006960  1
  O  O32  1  0.924703  0.278988  0.057941  1
  O  O33  1  0.708151  0.497019  0.873102  1
  O  O34  1  0.497019  0.873102  0.708151  1
  O  O35  1  0.873102  0.708151  0.497019  1
