# generated using pymatgen
data_Na2LiMnPCO7
_symmetry_space_group_name_H-M   'P 1'
_cell_length_a   6.78466205
_cell_length_b   8.86306089
_cell_length_c   10.24859189
_cell_angle_alpha   90.80088262
_cell_angle_beta   90.18648539
_cell_angle_gamma   90.77623750
_symmetry_Int_Tables_number   1
_chemical_formula_structural   Na2LiMnPCO7
_chemical_formula_sum   'Na8 Li4 Mn4 P4 C4 O28'
_cell_volume   616.15686115
_cell_formula_units_Z   4
loop_
 _symmetry_equiv_pos_site_id
 _symmetry_equiv_pos_as_xyz
  1  'x, y, z'
loop_
 _atom_site_type_symbol
 _atom_site_label
 _atom_site_symmetry_multiplicity
 _atom_site_fract_x
 _atom_site_fract_y
 _atom_site_fract_z
 _atom_site_occupancy
  Na  Na0  1  0.241299  0.916706  0.879230  1
  Na  Na1  1  0.244277  0.917046  0.378355  1
  Na  Na2  1  0.998812  0.744562  0.623958  1
  Na  Na3  1  0.499887  0.743186  0.622832  1
  Na  Na4  1  0.501054  0.744848  0.125917  1
  Na  Na5  1  0.501102  0.254797  0.875100  1
  Na  Na6  1  0.502002  0.255638  0.377271  1
  Na  Na7  1  0.998744  0.254017  0.376381  1
  Li  Li8  1  0.026298  0.725044  0.115960  1
  Li  Li9  1  0.977394  0.271655  0.883370  1
  Li  Li10  1  0.760158  0.091885  0.628049  1
  Li  Li11  1  0.764997  0.088632  0.125437  1
  Mn  Mn12  1  0.751892  0.640112  0.889931  1
  Mn  Mn13  1  0.752123  0.636951  0.387197  1
  Mn  Mn14  1  0.247379  0.358048  0.613018  1
  Mn  Mn15  1  0.246467  0.356161  0.110125  1
  P  P16  1  0.244766  0.585613  0.854813  1
  P  P17  1  0.246118  0.590715  0.351117  1
  P  P18  1  0.753172  0.403547  0.649797  1
  P  P19  1  0.753335  0.408707  0.145587  1
  C  C20  1  0.759029  0.956043  0.867362  1
  C  C21  1  0.751246  0.948212  0.363490  1
  C  C22  1  0.249162  0.058226  0.634193  1
  C  C23  1  0.240112  0.051901  0.131761  1
  O  O24  1  0.253315  0.913342  0.645028  1
  O  O25  1  0.225864  0.906523  0.140589  1
  O  O26  1  0.747915  0.916686  0.989113  1
  O  O27  1  0.752696  0.913535  0.487139  1
  O  O28  1  0.752435  0.852084  0.775127  1
  O  O29  1  0.755117  0.842690  0.273819  1
  O  O30  1  0.068591  0.683453  0.902225  1
  O  O31  1  0.435427  0.670984  0.899965  1
  O  O32  1  0.067412  0.681696  0.401507  1
  O  O33  1  0.434764  0.684086  0.387628  1
  O  O34  1  0.243704  0.574015  0.702512  1
  O  O35  1  0.747435  0.563625  0.589507  1
  O  O36  1  0.230811  0.575445  0.198374  1
  O  O37  1  0.769356  0.571536  0.090208  1
  O  O38  1  0.230312  0.422397  0.908197  1
  O  O39  1  0.769121  0.423297  0.801824  1
  O  O40  1  0.252665  0.430048  0.409030  1
  O  O41  1  0.756156  0.423868  0.297491  1
  O  O42  1  0.566038  0.307970  0.614637  1
  O  O43  1  0.929410  0.308198  0.600973  1
  O  O44  1  0.562695  0.323099  0.102086  1
  O  O45  1  0.926360  0.306253  0.099501  1
  O  O46  1  0.246224  0.145165  0.737418  1
  O  O47  1  0.245339  0.137534  0.236548  1
  O  O48  1  0.247411  0.119728  0.519100  1
  O  O49  1  0.249931  0.116595  0.018634  1
  O  O50  1  0.776248  0.096322  0.834440  1
  O  O51  1  0.746422  0.087573  0.327125  1
