# generated using pymatgen
data_Li3Co4CuO8
_symmetry_space_group_name_H-M   'P 1'
_cell_length_a   5.77136781
_cell_length_b   5.77136781
_cell_length_c   5.71220043
_cell_angle_alpha   62.12281400
_cell_angle_beta   117.87718600
_cell_angle_gamma   121.04385919
_symmetry_Int_Tables_number   1
_chemical_formula_structural   Li3Co4CuO8
_chemical_formula_sum   'Li3 Co4 Cu1 O8'
_cell_volume   137.50484725
_cell_formula_units_Z   1
loop_
 _symmetry_equiv_pos_site_id
 _symmetry_equiv_pos_as_xyz
  1  'x, y, z'
loop_
 _atom_site_type_symbol
 _atom_site_label
 _atom_site_symmetry_multiplicity
 _atom_site_fract_x
 _atom_site_fract_y
 _atom_site_fract_z
 _atom_site_occupancy
  Li  Li0  1  1.000000  0.500000  0.000000  1
  Li  Li1  1  0.000000  0.000000  0.500000  1
  Li  Li2  1  0.500000  0.000000  0.000000  1
  Co  Co3  1  0.500000  0.500000  0.500000  1
  Co  Co4  1  0.000000  0.000000  0.000000  1
  Co  Co5  1  1.000000  0.500000  0.500000  1
  Co  Co6  1  0.500000  0.000000  0.500000  1
  Cu  Cu7  1  0.500000  0.500000  0.000000  1
  O  O8  1  0.242077  0.757923  0.723576  1
  O  O9  1  0.277864  0.235251  0.272537  1
  O  O10  1  0.764749  0.722136  0.272537  1
  O  O11  1  0.732455  0.267545  0.713830  1
  O  O12  1  0.267545  0.732455  0.286170  1
  O  O13  1  0.235251  0.277864  0.727463  1
  O  O14  1  0.722136  0.764749  0.727463  1
  O  O15  1  0.757923  0.242077  0.276424  1
