# generated using pymatgen
data_Rb2O
_symmetry_space_group_name_H-M   'P 1'
_cell_length_a   4.73641630
_cell_length_b   7.30363888
_cell_length_c   8.81385254
_cell_angle_alpha   90.00000000
_cell_angle_beta   90.00000000
_cell_angle_gamma   90.00000000
_symmetry_Int_Tables_number   1
_chemical_formula_structural   Rb2O
_chemical_formula_sum   'Rb8 O4'
_cell_volume   304.89825526
_cell_formula_units_Z   4
loop_
 _symmetry_equiv_pos_site_id
 _symmetry_equiv_pos_as_xyz
  1  'x, y, z'
loop_
 _atom_site_type_symbol
 _atom_site_label
 _atom_site_symmetry_multiplicity
 _atom_site_fract_x
 _atom_site_fract_y
 _atom_site_fract_z
 _atom_site_occupancy
  Rb  Rb0  1  0.750000  0.990151  0.154178  1
  Rb  Rb1  1  0.750000  0.865009  0.588902  1
  Rb  Rb2  1  0.250000  0.634991  0.088902  1
  Rb  Rb3  1  0.250000  0.509849  0.654178  1
  Rb  Rb4  1  0.750000  0.490151  0.345822  1
  Rb  Rb5  1  0.750000  0.365009  0.911098  1
  Rb  Rb6  1  0.250000  0.134991  0.411098  1
  Rb  Rb7  1  0.250000  0.009849  0.845822  1
  O  O8  1  0.250000  0.741982  0.407945  1
  O  O9  1  0.750000  0.758018  0.907945  1
  O  O10  1  0.250000  0.241982  0.092055  1
  O  O11  1  0.750000  0.258018  0.592055  1
