# generated using pymatgen
data_CrCo3(PO4)4
_symmetry_space_group_name_H-M   'P 1'
_cell_length_a   4.78290342
_cell_length_b   5.83449542
_cell_length_c   9.88283777
_cell_angle_alpha   90.00000000
_cell_angle_beta   90.88885893
_cell_angle_gamma   90.00000000
_symmetry_Int_Tables_number   1
_chemical_formula_structural   CrCo3(PO4)4
_chemical_formula_sum   'Cr1 Co3 P4 O16'
_cell_volume   275.75558572
_cell_formula_units_Z   1
loop_
 _symmetry_equiv_pos_site_id
 _symmetry_equiv_pos_as_xyz
  1  'x, y, z'
loop_
 _atom_site_type_symbol
 _atom_site_label
 _atom_site_symmetry_multiplicity
 _atom_site_fract_x
 _atom_site_fract_y
 _atom_site_fract_z
 _atom_site_occupancy
  Cr  Cr0  1  0.032947  0.000000  0.270993  1
  Co  Co1  1  0.946679  0.500000  0.720801  1
  Co  Co2  1  0.528856  0.500000  0.229252  1
  Co  Co3  1  0.447494  0.000000  0.779890  1
  P  P4  1  0.909823  0.000000  0.593572  1
  P  P5  1  0.590298  0.000000  0.094973  1
  P  P6  1  0.418299  0.500000  0.905718  1
  P  P7  1  0.090272  0.500000  0.404884  1
  O  O8  1  0.827113  0.000000  0.444548  1
  O  O9  1  0.766166  0.207016  0.669934  1
  O  O10  1  0.766166  0.792984  0.669934  1
  O  O11  1  0.771043  0.500000  0.381226  1
  O  O12  1  0.733698  0.500000  0.887352  1
  O  O13  1  0.743644  0.204405  0.170274  1
  O  O14  1  0.743644  0.795595  0.170274  1
  O  O15  1  0.664121  0.000000  0.944527  1
  O  O16  1  0.347944  0.500000  0.057612  1
  O  O17  1  0.267312  0.705482  0.830655  1
  O  O18  1  0.267312  0.294518  0.830655  1
  O  O19  1  0.275685  0.000000  0.112736  1
  O  O20  1  0.227620  0.000000  0.613874  1
  O  O21  1  0.234939  0.706296  0.330409  1
  O  O22  1  0.234939  0.293704  0.330409  1
  O  O23  1  0.163985  0.500000  0.555498  1
