# generated using pymatgen
data_Li6Mn3Sb3O16
_symmetry_space_group_name_H-M   'P 1'
_cell_length_a   6.08608859
_cell_length_b   6.08608859
_cell_length_c   10.03026001
_cell_angle_alpha   89.78383330
_cell_angle_beta   90.21616670
_cell_angle_gamma   120.59407797
_symmetry_Int_Tables_number   1
_chemical_formula_structural   Li6Mn3Sb3O16
_chemical_formula_sum   'Li6 Mn3 Sb3 O16'
_cell_volume   319.80421694
_cell_formula_units_Z   1
loop_
 _symmetry_equiv_pos_site_id
 _symmetry_equiv_pos_as_xyz
  1  'x, y, z'
loop_
 _atom_site_type_symbol
 _atom_site_label
 _atom_site_symmetry_multiplicity
 _atom_site_fract_x
 _atom_site_fract_y
 _atom_site_fract_z
 _atom_site_occupancy
  Li  Li0  1  0.668893  0.331107  0.493599  1
  Li  Li1  1  0.663908  0.336092  0.125801  1
  Li  Li2  1  0.986580  0.013420  0.002301  1
  Li  Li3  1  0.993256  0.006744  0.493389  1
  Li  Li4  1  0.341699  0.658301  0.005745  1
  Li  Li5  1  0.330842  0.669158  0.617785  1
  Mn  Mn6  1  0.834062  0.165938  0.781228  1
  Mn  Mn7  1  0.664254  0.831343  0.283816  1
  Mn  Mn8  1  0.168657  0.335746  0.283816  1
  Sb  Sb9  1  0.833411  0.661536  0.785483  1
  Sb  Sb10  1  0.338464  0.166589  0.785483  1
  Sb  Sb11  1  0.169618  0.830382  0.283120  1
  O  O12  1  0.843588  0.693764  0.388010  1
  O  O13  1  0.513960  0.486040  0.671114  1
  O  O14  1  0.653667  0.346333  0.905460  1
  O  O15  1  0.016365  0.983635  0.672305  1
  O  O16  1  0.995032  0.004968  0.183756  1
  O  O17  1  0.306236  0.156412  0.388010  1
  O  O18  1  0.969603  0.484333  0.679567  1
  O  O19  1  0.515667  0.030397  0.679567  1
  O  O20  1  0.153425  0.846575  0.900725  1
  O  O21  1  0.848786  0.151214  0.382564  1
  O  O22  1  0.490900  0.969439  0.177425  1
  O  O23  1  0.030561  0.509100  0.177425  1
  O  O24  1  0.339319  0.660681  0.391082  1
  O  O25  1  0.695812  0.846703  0.885347  1
  O  O26  1  0.480702  0.519298  0.182889  1
  O  O27  1  0.153297  0.304188  0.885347  1
