# generated using pymatgen
data_Li2Mn3(BO3)3
_symmetry_space_group_name_H-M   'P 1'
_cell_length_a   5.22519071
_cell_length_b   6.14248244
_cell_length_c   11.95671621
_cell_angle_alpha   83.70524460
_cell_angle_beta   78.72784990
_cell_angle_gamma   87.20831513
_symmetry_Int_Tables_number   1
_chemical_formula_structural   Li2Mn3(BO3)3
_chemical_formula_sum   'Li4 Mn6 B6 O18'
_cell_volume   373.94021141
_cell_formula_units_Z   2
loop_
 _symmetry_equiv_pos_site_id
 _symmetry_equiv_pos_as_xyz
  1  'x, y, z'
loop_
 _atom_site_type_symbol
 _atom_site_label
 _atom_site_symmetry_multiplicity
 _atom_site_fract_x
 _atom_site_fract_y
 _atom_site_fract_z
 _atom_site_occupancy
  Li  Li0  1  0.137771  0.739180  0.073713  1
  Li  Li1  1  0.862229  0.260820  0.926287  1
  Li  Li2  1  0.459444  0.084942  0.399242  1
  Li  Li3  1  0.540556  0.915058  0.600758  1
  Mn  Mn4  1  0.441688  0.075878  0.827474  1
  Mn  Mn5  1  0.763150  0.418053  0.170813  1
  Mn  Mn6  1  0.098812  0.741316  0.494205  1
  Mn  Mn7  1  0.558312  0.924122  0.172526  1
  Mn  Mn8  1  0.901188  0.258684  0.505795  1
  Mn  Mn9  1  0.236850  0.581947  0.829187  1
  B  B10  1  0.681776  0.699773  0.947371  1
  B  B11  1  0.318224  0.300227  0.052629  1
  B  B12  1  0.654141  0.661902  0.388801  1
  B  B13  1  0.011498  0.022438  0.278135  1
  B  B14  1  0.345859  0.338098  0.611199  1
  B  B15  1  0.988502  0.977562  0.721865  1
  O  O16  1  0.431112  0.784126  0.929415  1
  O  O17  1  0.830863  0.574607  0.872228  1
  O  O18  1  0.244788  0.268904  0.948959  1
  O  O19  1  0.755212  0.731096  0.051041  1
  O  O20  1  0.169137  0.425393  0.127772  1
  O  O21  1  0.568888  0.215874  0.070585  1
  O  O22  1  0.882283  0.560179  0.409720  1
  O  O23  1  0.590993  0.652085  0.280667  1
  O  O24  1  0.500005  0.777909  0.469753  1
  O  O25  1  0.166049  0.929999  0.189167  1
  O  O26  1  0.092526  0.044390  0.380534  1
  O  O27  1  0.755495  0.096653  0.268913  1
  O  O28  1  0.117717  0.439821  0.590280  1
  O  O29  1  0.499995  0.222091  0.530247  1
  O  O30  1  0.907474  0.955610  0.619466  1
  O  O31  1  0.409007  0.347915  0.719333  1
  O  O32  1  0.833951  0.070001  0.810833  1
  O  O33  1  0.244505  0.903347  0.731087  1
