# generated using pymatgen
data_HS3N
_symmetry_space_group_name_H-M   'P 1'
_cell_length_a   8.53720235
_cell_length_b   13.13900666
_cell_length_c   14.62223887
_cell_angle_alpha   90.00000000
_cell_angle_beta   90.00000000
_cell_angle_gamma   90.00000000
_symmetry_Int_Tables_number   1
_chemical_formula_structural   HS3N
_chemical_formula_sum   'H16 S48 N16'
_cell_volume   1640.18177662
_cell_formula_units_Z   16
loop_
 _symmetry_equiv_pos_site_id
 _symmetry_equiv_pos_as_xyz
  1  'x, y, z'
loop_
 _atom_site_type_symbol
 _atom_site_label
 _atom_site_symmetry_multiplicity
 _atom_site_fract_x
 _atom_site_fract_y
 _atom_site_fract_z
 _atom_site_occupancy
  H  H0  1  0.629947  0.062570  0.169681  1
  H  H1  1  0.129947  0.437430  0.830319  1
  H  H2  1  0.370053  0.562570  0.330319  1
  H  H3  1  0.870053  0.937430  0.669681  1
  H  H4  1  0.370053  0.937430  0.830319  1
  H  H5  1  0.870053  0.562570  0.169681  1
  H  H6  1  0.629947  0.437430  0.669681  1
  H  H7  1  0.129947  0.062570  0.330319  1
  H  H8  1  0.792797  0.230493  0.007104  1
  H  H9  1  0.292797  0.269507  0.992896  1
  H  H10  1  0.207203  0.730493  0.492896  1
  H  H11  1  0.707203  0.769507  0.507104  1
  H  H12  1  0.207203  0.769507  0.992896  1
  H  H13  1  0.707203  0.730493  0.007104  1
  H  H14  1  0.792797  0.269507  0.507104  1
  H  H15  1  0.292797  0.230493  0.492896  1
  S  S16  1  0.591256  0.349984  0.990744  1
  S  S17  1  0.091256  0.150016  0.009256  1
  S  S18  1  0.408744  0.849984  0.509256  1
  S  S19  1  0.908744  0.650016  0.490744  1
  S  S20  1  0.408744  0.650016  0.009256  1
  S  S21  1  0.908744  0.849984  0.990744  1
  S  S22  1  0.591256  0.150016  0.490744  1
  S  S23  1  0.091256  0.349984  0.509256  1
  S  S24  1  0.395815  0.145368  0.202595  1
  S  S25  1  0.895815  0.354632  0.797405  1
  S  S26  1  0.604185  0.645368  0.297405  1
  S  S27  1  0.104185  0.854632  0.702595  1
  S  S28  1  0.604185  0.854632  0.797405  1
  S  S29  1  0.104185  0.645368  0.202595  1
  S  S30  1  0.395815  0.354632  0.702595  1
  S  S31  1  0.895815  0.145368  0.297405  1
  S  S32  1  0.595584  0.433841  0.110551  1
  S  S33  1  0.095584  0.066159  0.889449  1
  S  S34  1  0.404416  0.933841  0.389449  1
  S  S35  1  0.904416  0.566159  0.610551  1
  S  S36  1  0.404416  0.566159  0.889449  1
  S  S37  1  0.904416  0.933841  0.110551  1
  S  S38  1  0.595584  0.066159  0.610551  1
  S  S39  1  0.095584  0.433841  0.389449  1
  S  S40  1  0.400864  0.399409  0.189356  1
  S  S41  1  0.900864  0.100591  0.810644  1
  S  S42  1  0.599136  0.899409  0.310644  1
  S  S43  1  0.099136  0.600591  0.689356  1
  S  S44  1  0.599136  0.600591  0.810644  1
  S  S45  1  0.099136  0.899409  0.189356  1
  S  S46  1  0.400864  0.100591  0.689356  1
  S  S47  1  0.900864  0.399409  0.310644  1
  S  S48  1  0.460361  0.275836  0.270807  1
  S  S49  1  0.960361  0.224164  0.729193  1
  S  S50  1  0.539639  0.775836  0.229193  1
  S  S51  1  0.039639  0.724164  0.770807  1
  S  S52  1  0.539639  0.724164  0.729193  1
  S  S53  1  0.039639  0.775836  0.270807  1
  S  S54  1  0.460361  0.224164  0.770807  1
  S  S55  1  0.960361  0.275836  0.229193  1
  S  S56  1  0.568223  0.128006  0.024700  1
  S  S57  1  0.068223  0.371994  0.975300  1
  S  S58  1  0.431777  0.628006  0.475300  1
  S  S59  1  0.931777  0.871994  0.524700  1
  S  S60  1  0.431777  0.871994  0.975300  1
  S  S61  1  0.931777  0.628006  0.024700  1
  S  S62  1  0.568223  0.371994  0.524700  1
  S  S63  1  0.068223  0.128006  0.475300  1
  N  N64  1  0.544711  0.103653  0.137048  1
  N  N65  1  0.044711  0.396347  0.862952  1
  N  N66  1  0.455289  0.603653  0.362952  1
  N  N67  1  0.955289  0.896347  0.637048  1
  N  N68  1  0.455289  0.896347  0.862952  1
  N  N69  1  0.955289  0.603653  0.137048  1
  N  N70  1  0.544711  0.396347  0.637048  1
  N  N71  1  0.044711  0.103653  0.362952  1
  N  N72  1  0.672686  0.234822  0.008084  1
  N  N73  1  0.172686  0.265178  0.991916  1
  N  N74  1  0.327314  0.734822  0.491916  1
  N  N75  1  0.827314  0.765178  0.508084  1
  N  N76  1  0.327314  0.765178  0.991916  1
  N  N77  1  0.827314  0.734822  0.008084  1
  N  N78  1  0.672686  0.265178  0.508084  1
  N  N79  1  0.172686  0.234822  0.491916  1
