# generated using pymatgen
data_Co2CuO4
_symmetry_space_group_name_H-M   'P 1'
_cell_length_a   5.82890580
_cell_length_b   5.82890580
_cell_length_c   5.82890580
_cell_angle_alpha   120.30799919
_cell_angle_beta   120.04852596
_cell_angle_gamma   89.69166416
_symmetry_Int_Tables_number   1
_chemical_formula_structural   Co2CuO4
_chemical_formula_sum   'Co4 Cu2 O8'
_cell_volume   139.65765260
_cell_formula_units_Z   2
loop_
 _symmetry_equiv_pos_site_id
 _symmetry_equiv_pos_as_xyz
  1  'x, y, z'
loop_
 _atom_site_type_symbol
 _atom_site_label
 _atom_site_symmetry_multiplicity
 _atom_site_fract_x
 _atom_site_fract_y
 _atom_site_fract_z
 _atom_site_occupancy
  Co  Co0  1  0.129499  0.879499  0.750000  1
  Co  Co1  1  0.500000  0.000000  0.500000  1
  Co  Co2  1  0.870501  0.120501  0.250000  1
  Co  Co3  1  0.500000  0.500000  0.000000  1
  Cu  Cu4  1  0.500000  0.500000  0.500000  1
  Cu  Cu5  1  0.000000  0.500000  0.000000  1
  O  O6  1  0.731843  0.249212  0.517369  1
  O  O7  1  0.283582  0.254653  0.528929  1
  O  O8  1  0.716418  0.745347  0.471071  1
  O  O9  1  0.274276  0.745347  0.028929  1
  O  O10  1  0.268157  0.285526  0.017369  1
  O  O11  1  0.268157  0.750788  0.482631  1
  O  O12  1  0.731843  0.714474  0.982631  1
  O  O13  1  0.725724  0.254653  0.971071  1
