# generated using pymatgen
data_Hf2N2O
_symmetry_space_group_name_H-M   'P 1'
_cell_length_a   8.71262826
_cell_length_b   8.72778229
_cell_length_c   8.74461049
_cell_angle_alpha   109.39599116
_cell_angle_beta   109.49587272
_cell_angle_gamma   109.40140169
_symmetry_Int_Tables_number   1
_chemical_formula_structural   Hf2N2O
_chemical_formula_sum   'Hf16 N16 O8'
_cell_volume   512.64293671
_cell_formula_units_Z   8
loop_
 _symmetry_equiv_pos_site_id
 _symmetry_equiv_pos_as_xyz
  1  'x, y, z'
loop_
 _atom_site_type_symbol
 _atom_site_label
 _atom_site_symmetry_multiplicity
 _atom_site_fract_x
 _atom_site_fract_y
 _atom_site_fract_z
 _atom_site_occupancy
  Hf  Hf0  1  0.998367  0.009542  0.500404  1
  Hf  Hf1  1  0.258046  0.716296  0.464914  1
  Hf  Hf2  1  0.776209  0.534218  0.253742  1
  Hf  Hf3  1  0.286154  0.035507  0.248478  1
  Hf  Hf4  1  0.739229  0.786754  0.035344  1
  Hf  Hf5  1  0.485872  0.487581  0.486759  1
  Hf  Hf6  1  0.965893  0.741789  0.714798  1
  Hf  Hf7  1  0.498837  0.998848  0.001491  1
  Hf  Hf8  1  0.011859  0.501586  0.995161  1
  Hf  Hf9  1  0.537893  0.254762  0.784892  1
  Hf  Hf10  1  0.032963  0.252647  0.285176  1
  Hf  Hf11  1  0.460646  0.741381  0.213621  1
  Hf  Hf12  1  0.259964  0.215118  0.967266  1
  Hf  Hf13  1  0.215462  0.461002  0.747188  1
  Hf  Hf14  1  0.718061  0.971417  0.752226  1
  Hf  Hf15  1  0.753601  0.291430  0.542742  1
  N  N16  1  0.732134  0.760342  0.272104  1
  N  N17  1  0.539584  0.273717  0.044599  1
  N  N18  1  0.268435  0.231119  0.723367  1
  N  N19  1  0.517283  0.745981  0.474406  1
  N  N20  1  0.223465  0.773288  0.238076  1
  N  N21  1  0.228151  0.954158  0.963628  1
  N  N22  1  0.729783  0.493845  0.457208  1
  N  N23  1  0.009754  0.543478  0.773186  1
  N  N24  1  0.256453  0.270870  0.226018  1
  N  N25  1  0.487786  0.258999  0.531735  1
  N  N26  1  0.774249  0.226935  0.767869  1
  N  N27  1  0.773170  0.044804  0.032401  1
  N  N28  1  0.466798  0.728454  0.954753  1
  N  N29  1  0.239351  0.464630  0.014908  1
  N  N30  1  0.268599  0.512803  0.542325  1
  N  N31  1  0.945651  0.218264  0.482133  1
  O  O32  1  0.959700  0.001995  0.730030  1
  O  O33  1  0.053891  0.776588  0.518991  1
  O  O34  1  0.449973  0.964105  0.726529  1
  O  O35  1  0.037256  0.993081  0.266862  1
  O  O36  1  0.985419  0.460419  0.231038  1
  O  O37  1  0.751320  0.730944  0.782180  1
  O  O38  1  0.759027  0.535854  0.982106  1
  O  O39  1  0.543710  0.035452  0.269344  1
