# generated using pymatgen
data_Li3MnO4
_symmetry_space_group_name_H-M   'P 1'
_cell_length_a   7.10541072
_cell_length_b   7.10541072
_cell_length_c   7.10541072
_cell_angle_alpha   109.47122063
_cell_angle_beta   109.47122063
_cell_angle_gamma   109.47122063
_symmetry_Int_Tables_number   1
_chemical_formula_structural   Li3MnO4
_chemical_formula_sum   'Li12 Mn4 O16'
_cell_volume   276.15039590
_cell_formula_units_Z   4
loop_
 _symmetry_equiv_pos_site_id
 _symmetry_equiv_pos_as_xyz
  1  'x, y, z'
loop_
 _atom_site_type_symbol
 _atom_site_label
 _atom_site_symmetry_multiplicity
 _atom_site_fract_x
 _atom_site_fract_y
 _atom_site_fract_z
 _atom_site_occupancy
  Li  Li0  1  0.515677  0.515677  0.254419  1
  Li  Li1  1  0.515677  0.254419  0.515677  1
  Li  Li2  1  1.000000  0.738742  0.484323  1
  Li  Li3  1  0.484323  0.738742  1.000000  1
  Li  Li4  1  0.261258  0.745581  0.261258  1
  Li  Li5  1  1.000000  0.484323  0.738742  1
  Li  Li6  1  0.738742  0.484323  1.000000  1
  Li  Li7  1  0.745581  0.261258  0.261258  1
  Li  Li8  1  0.261258  0.261258  0.745581  1
  Li  Li9  1  0.484323  0.000000  0.738742  1
  Li  Li10  1  0.738742  1.000000  0.484323  1
  Li  Li11  1  0.254419  0.515677  0.515677  1
  Mn  Mn12  1  1.000000  0.263160  1.000000  1
  Mn  Mn13  1  0.263160  0.000000  0.000000  1
  Mn  Mn14  1  0.000000  0.000000  0.263160  1
  Mn  Mn15  1  0.736840  0.736840  0.736840  1
  O  O16  1  0.000000  0.772738  0.000000  1
  O  O17  1  0.757100  0.523186  0.523186  1
  O  O18  1  0.227262  0.227262  0.227262  1
  O  O19  1  0.766086  0.766086  0.242900  1
  O  O20  1  0.523186  0.523186  0.757100  1
  O  O21  1  0.242900  0.766086  0.766086  1
  O  O22  1  0.476814  0.233914  0.000000  1
  O  O23  1  0.476814  1.000000  0.233914  1
  O  O24  1  0.233914  1.000000  0.476814  1
  O  O25  1  0.523186  0.757100  0.523186  1
  O  O26  1  1.000000  0.233914  0.476814  1
  O  O27  1  1.000000  1.000000  0.772738  1
  O  O28  1  0.000000  0.476814  0.233914  1
  O  O29  1  0.766086  0.242900  0.766086  1
  O  O30  1  0.233914  0.476814  1.000000  1
  O  O31  1  0.772738  0.000000  0.000000  1
