# generated using pymatgen
data_Li3MgV8O16
_symmetry_space_group_name_H-M   'P 1'
_cell_length_a   5.99800598
_cell_length_b   5.99800598
_cell_length_c   10.32123597
_cell_angle_alpha   74.18392909
_cell_angle_beta   105.81607091
_cell_angle_gamma   119.59546112
_symmetry_Int_Tables_number   1
_chemical_formula_structural   Li3MgV8O16
_chemical_formula_sum   'Li3 Mg1 V8 O16'
_cell_volume   306.39788888
_cell_formula_units_Z   1
loop_
 _symmetry_equiv_pos_site_id
 _symmetry_equiv_pos_as_xyz
  1  'x, y, z'
loop_
 _atom_site_type_symbol
 _atom_site_label
 _atom_site_symmetry_multiplicity
 _atom_site_fract_x
 _atom_site_fract_y
 _atom_site_fract_z
 _atom_site_occupancy
  Li  Li0  1  0.999417  0.000583  0.998707  1
  Li  Li1  1  0.628298  0.371702  0.877636  1
  Li  Li2  1  0.124670  0.875330  0.370982  1
  Mg  Mg3  1  0.814284  0.185716  0.436506  1
  V  V4  1  0.561282  0.938649  0.692653  1
  V  V5  1  0.311327  0.688673  0.933552  1
  V  V6  1  0.500745  0.499255  0.503300  1
  V  V7  1  0.062530  0.937470  0.689298  1
  V  V8  1  0.061351  0.438718  0.692653  1
  V  V9  1  0.053380  0.432546  0.185509  1
  V  V10  1  0.567454  0.946620  0.185509  1
  V  V11  1  0.563370  0.436630  0.185090  1
  O  O12  1  0.415566  0.029053  0.814860  1
  O  O13  1  0.423133  0.576867  0.821825  1
  O  O14  1  0.196256  0.803744  0.582634  1
  O  O15  1  0.970947  0.584434  0.814860  1
  O  O16  1  0.928506  0.071494  0.795409  1
  O  O17  1  0.169048  0.303054  0.566773  1
  O  O18  1  0.696946  0.830952  0.566773  1
  O  O19  1  0.697704  0.302296  0.566612  1
  O  O20  1  0.919104  0.080896  0.292336  1
  O  O21  1  0.928223  0.539130  0.293456  1
  O  O22  1  0.701954  0.298046  0.077378  1
  O  O23  1  0.460870  0.071777  0.293456  1
  O  O24  1  0.653250  0.797228  0.072145  1
  O  O25  1  0.427161  0.572839  0.301053  1
  O  O26  1  0.202772  0.346750  0.072145  1
  O  O27  1  0.210446  0.789554  0.066885  1
