# generated using pymatgen
data_Li3Co2Si3O10
_symmetry_space_group_name_H-M   'P 1'
_cell_length_a   5.51289211
_cell_length_b   5.51289211
_cell_length_c   16.79639917
_cell_angle_alpha   85.42870836
_cell_angle_beta   94.57129164
_cell_angle_gamma   120.82729887
_symmetry_Int_Tables_number   1
_chemical_formula_structural   Li3Co2Si3O10
_chemical_formula_sum   'Li6 Co4 Si6 O20'
_cell_volume   436.50878458
_cell_formula_units_Z   2
loop_
 _symmetry_equiv_pos_site_id
 _symmetry_equiv_pos_as_xyz
  1  'x, y, z'
loop_
 _atom_site_type_symbol
 _atom_site_label
 _atom_site_symmetry_multiplicity
 _atom_site_fract_x
 _atom_site_fract_y
 _atom_site_fract_z
 _atom_site_occupancy
  Li  Li0  1  0.430155  0.835804  0.262085  1
  Li  Li1  1  0.365308  0.857406  0.952081  1
  Li  Li2  1  0.164196  0.569845  0.762085  1
  Li  Li3  1  0.142594  0.634692  0.452081  1
  Li  Li4  1  0.755994  0.520933  0.225487  1
  Li  Li5  1  0.479067  0.244006  0.725487  1
  Co  Co6  1  0.806673  0.994889  0.419186  1
  Co  Co7  1  0.008928  0.820025  0.076534  1
  Co  Co8  1  0.005111  0.193327  0.919186  1
  Co  Co9  1  0.179975  0.991072  0.576534  1
  Si  Si10  1  0.877231  0.880836  0.749600  1
  Si  Si11  1  0.521076  0.683749  0.599839  1
  Si  Si12  1  0.316251  0.478924  0.099839  1
  Si  Si13  1  0.677904  0.526147  0.904738  1
  Si  Si14  1  0.473853  0.322096  0.404738  1
  Si  Si15  1  0.119164  0.122769  0.249600  1
  O  O16  1  0.126062  0.890625  0.700649  1
  O  O17  1  0.109375  0.873938  0.200649  1
  O  O18  1  0.244187  0.697972  0.565656  1
  O  O19  1  0.302028  0.755813  0.065656  1
  O  O20  1  0.584066  0.797082  0.692944  1
  O  O21  1  0.800518  0.889885  0.549183  1
  O  O22  1  0.943536  0.798601  0.951374  1
  O  O23  1  0.457482  0.609162  0.407381  1
  O  O24  1  0.390838  0.542518  0.907381  1
  O  O25  1  0.202918  0.415934  0.192944  1
  O  O26  1  0.767491  0.582966  0.806978  1
  O  O27  1  0.645208  0.552140  0.109103  1
  O  O28  1  0.447860  0.354792  0.609103  1
  O  O29  1  0.110115  0.199482  0.049183  1
  O  O30  1  0.201399  0.056464  0.451374  1
  O  O31  1  0.417034  0.232509  0.306978  1
  O  O32  1  0.663932  0.232558  0.930754  1
  O  O33  1  0.767442  0.336068  0.430754  1
  O  O34  1  0.980735  0.165411  0.794471  1
  O  O35  1  0.834589  0.019265  0.294471  1
