# generated using pymatgen
data_LiFe2(BO3)2
_symmetry_space_group_name_H-M   'P 1'
_cell_length_a   5.27178434
_cell_length_b   9.12471026
_cell_length_c   10.11996327
_cell_angle_alpha   89.60197575
_cell_angle_beta   89.03644966
_cell_angle_gamma   89.52411933
_symmetry_Int_Tables_number   1
_chemical_formula_structural   LiFe2(BO3)2
_chemical_formula_sum   'Li4 Fe8 B8 O24'
_cell_volume   486.70879505
_cell_formula_units_Z   4
loop_
 _symmetry_equiv_pos_site_id
 _symmetry_equiv_pos_as_xyz
  1  'x, y, z'
loop_
 _atom_site_type_symbol
 _atom_site_label
 _atom_site_symmetry_multiplicity
 _atom_site_fract_x
 _atom_site_fract_y
 _atom_site_fract_z
 _atom_site_occupancy
  Li  Li0  1  0.185338  0.164136  0.143150  1
  Li  Li1  1  0.318819  0.329409  0.413952  1
  Li  Li2  1  0.658481  0.678959  0.666194  1
  Li  Li3  1  0.689063  0.667335  0.163297  1
  Fe  Fe4  1  0.152037  0.850464  0.629972  1
  Fe  Fe5  1  0.185078  0.496790  0.125235  1
  Fe  Fe6  1  0.330010  0.998417  0.874881  1
  Fe  Fe7  1  0.320475  0.669839  0.380910  1
  Fe  Fe8  1  0.661006  0.333654  0.636551  1
  Fe  Fe9  1  0.687813  0.994597  0.123153  1
  Fe  Fe10  1  0.827021  0.153736  0.381687  1
  Fe  Fe11  1  0.834169  0.492079  0.879847  1
  B  B12  1  0.168945  0.505753  0.622333  1
  B  B13  1  0.172434  0.831692  0.130560  1
  B  B14  1  0.335807  0.001436  0.372316  1
  B  B15  1  0.324402  0.664629  0.874665  1
  B  B16  1  0.656953  0.997356  0.627562  1
  B  B17  1  0.674685  0.331865  0.133017  1
  B  B18  1  0.825217  0.491277  0.375441  1
  B  B19  1  0.831942  0.164392  0.883184  1
  O  O20  1  0.087415  0.500717  0.349899  1
  O  O21  1  0.087472  0.149396  0.891942  1
  O  O22  1  0.218748  0.798580  0.842059  1
  O  O23  1  0.233022  0.871965  0.418262  1
  O  O24  1  0.188676  0.127708  0.361384  1
  O  O25  1  0.171414  0.552746  0.923494  1
  O  O26  1  0.296676  0.377413  0.607433  1
  O  O27  1  0.300885  0.957082  0.087989  1
  O  O28  1  0.288619  0.638451  0.581764  1
  O  O29  1  0.316093  0.709401  0.177356  1
  O  O30  1  0.416654  0.327254  0.143098  1
  O  O31  1  0.410629  0.008985  0.679167  1
  O  O32  1  0.588585  0.006489  0.333406  1
  O  O33  1  0.580455  0.639244  0.857136  1
  O  O34  1  0.724300  0.297028  0.841021  1
  O  O35  1  0.721550  0.357821  0.414894  1
  O  O36  1  0.670071  0.610866  0.357534  1
  O  O37  1  0.671076  0.051929  0.921717  1
  O  O38  1  0.796417  0.460189  0.085633  1
  O  O39  1  0.783045  0.867134  0.627270  1
  O  O40  1  0.767462  0.124437  0.573764  1
  O  O41  1  0.823381  0.211426  0.172481  1
  O  O42  1  0.915961  0.823173  0.130499  1
  O  O43  1  0.917647  0.513640  0.671762  1
