# generated using pymatgen
data_CoPH16NO10
_symmetry_space_group_name_H-M   'P 1'
_cell_length_a   6.13774696
_cell_length_b   6.98591362
_cell_length_c   11.24202194
_cell_angle_alpha   90.00000000
_cell_angle_beta   90.00000000
_cell_angle_gamma   90.00000000
_symmetry_Int_Tables_number   1
_chemical_formula_structural   CoPH16NO10
_chemical_formula_sum   'Co2 P2 H32 N2 O20'
_cell_volume   482.03283161
_cell_formula_units_Z   2
loop_
 _symmetry_equiv_pos_site_id
 _symmetry_equiv_pos_as_xyz
  1  'x, y, z'
loop_
 _atom_site_type_symbol
 _atom_site_label
 _atom_site_symmetry_multiplicity
 _atom_site_fract_x
 _atom_site_fract_y
 _atom_site_fract_z
 _atom_site_occupancy
  Co  Co0  1  0.877338  0.000000  0.111018  1
  Co  Co1  1  0.122662  0.500000  0.611018  1
  P  P2  1  0.498770  0.000000  0.485512  1
  P  P3  1  0.501230  0.500000  0.985512  1
  H  H4  1  0.329772  0.000000  0.149495  1
  H  H5  1  0.227778  0.000000  0.282574  1
  H  H6  1  0.718350  0.000000  0.708304  1
  H  H7  1  0.853667  0.000000  0.844933  1
  H  H8  1  0.491737  0.882812  0.992659  1
  H  H9  1  0.961299  0.879949  0.732116  1
  H  H10  1  0.709089  0.801500  0.305660  1
  H  H11  1  0.118202  0.820644  0.470023  1
  H  H12  1  0.131835  0.749912  0.980582  1
  H  H13  1  0.330256  0.820337  0.685452  1
  H  H14  1  0.669744  0.679663  0.185452  1
  H  H15  1  0.868165  0.750088  0.480582  1
  H  H16  1  0.881798  0.679356  0.970023  1
  H  H17  1  0.290911  0.698500  0.805660  1
  H  H18  1  0.038701  0.620051  0.232116  1
  H  H19  1  0.508263  0.617188  0.492659  1
  H  H20  1  0.281650  0.500000  0.208304  1
  H  H21  1  0.146333  0.500000  0.344933  1
  H  H22  1  0.772222  0.500000  0.782574  1
  H  H23  1  0.670228  0.500000  0.649495  1
  H  H24  1  0.508263  0.382812  0.492659  1
  H  H25  1  0.038701  0.379949  0.232116  1
  H  H26  1  0.290911  0.301500  0.805660  1
  H  H27  1  0.881798  0.320644  0.970023  1
  H  H28  1  0.868165  0.249912  0.480582  1
  H  H29  1  0.669744  0.320337  0.185452  1
  H  H30  1  0.330256  0.179663  0.685452  1
  H  H31  1  0.131835  0.250088  0.980582  1
  H  H32  1  0.118202  0.179356  0.470023  1
  H  H33  1  0.709089  0.198500  0.305660  1
  H  H34  1  0.961299  0.120051  0.732116  1
  H  H35  1  0.491737  0.117188  0.992659  1
  N  N36  1  0.869306  0.000000  0.753611  1
  N  N37  1  0.130694  0.500000  0.253611  1
  O  O38  1  0.192647  0.000000  0.195327  1
  O  O39  1  0.547901  0.000000  0.034924  1
  O  O40  1  0.265619  0.000000  0.430170  1
  O  O41  1  0.479925  0.000000  0.623788  1
  O  O42  1  0.621601  0.817341  0.442641  1
  O  O43  1  0.976687  0.793427  0.990196  1
  O  O44  1  0.771555  0.774377  0.224076  1
  O  O45  1  0.228445  0.725623  0.724076  1
  O  O46  1  0.023313  0.706573  0.490196  1
  O  O47  1  0.378399  0.682659  0.942641  1
  O  O48  1  0.452099  0.500000  0.534924  1
  O  O49  1  0.520075  0.500000  0.123788  1
  O  O50  1  0.807353  0.500000  0.695327  1
  O  O51  1  0.734381  0.500000  0.930170  1
  O  O52  1  0.378399  0.317341  0.942641  1
  O  O53  1  0.023313  0.293427  0.490196  1
  O  O54  1  0.228445  0.274377  0.724076  1
  O  O55  1  0.771555  0.225623  0.224076  1
  O  O56  1  0.976687  0.206573  0.990196  1
  O  O57  1  0.621601  0.182659  0.442641  1
