# generated using pymatgen
data_Li3Al2VO6
_symmetry_space_group_name_H-M   'P 1'
_cell_length_a   5.38424074
_cell_length_b   5.84786692
_cell_length_c   7.83082607
_cell_angle_alpha   90.99553614
_cell_angle_beta   97.79305891
_cell_angle_gamma   90.55808984
_symmetry_Int_Tables_number   1
_chemical_formula_structural   Li3Al2VO6
_chemical_formula_sum   'Li6 Al4 V2 O12'
_cell_volume   244.23163975
_cell_formula_units_Z   2
loop_
 _symmetry_equiv_pos_site_id
 _symmetry_equiv_pos_as_xyz
  1  'x, y, z'
loop_
 _atom_site_type_symbol
 _atom_site_label
 _atom_site_symmetry_multiplicity
 _atom_site_fract_x
 _atom_site_fract_y
 _atom_site_fract_z
 _atom_site_occupancy
  Li  Li0  1  0.179617  0.842776  0.096149  1
  Li  Li1  1  0.352496  0.660754  0.422691  1
  Li  Li2  1  0.502926  0.832002  0.746217  1
  Li  Li3  1  0.497074  0.167998  0.253783  1
  Li  Li4  1  0.647504  0.339246  0.577309  1
  Li  Li5  1  0.820383  0.157224  0.903851  1
  Al  Al6  1  0.180066  0.167281  0.589248  1
  Al  Al7  1  0.654137  0.672608  0.076658  1
  Al  Al8  1  0.345863  0.327392  0.923342  1
  Al  Al9  1  0.819934  0.832719  0.410752  1
  V  V10  1  0.996924  0.668083  0.753034  1
  V  V11  1  0.003076  0.331917  0.246966  1
  O  O12  1  0.971924  0.664907  0.253042  1
  O  O13  1  0.174625  0.187503  0.075063  1
  O  O14  1  0.138910  0.852938  0.580851  1
  O  O15  1  0.313393  0.319539  0.427204  1
  O  O16  1  0.533631  0.830008  0.245612  1
  O  O17  1  0.341738  0.641267  0.925717  1
  O  O18  1  0.658262  0.358733  0.074283  1
  O  O19  1  0.466369  0.169992  0.754388  1
  O  O20  1  0.686607  0.680461  0.572796  1
  O  O21  1  0.861090  0.147062  0.419149  1
  O  O22  1  0.825375  0.812497  0.924937  1
  O  O23  1  0.028076  0.335093  0.746958  1
