# generated using pymatgen
data_Li4MnNb(WO6)2
_symmetry_space_group_name_H-M   'P 1'
_cell_length_a   5.15098985
_cell_length_b   5.45110262
_cell_length_c   7.70168644
_cell_angle_alpha   94.53480279
_cell_angle_beta   90.79609517
_cell_angle_gamma   90.05243804
_symmetry_Int_Tables_number   1
_chemical_formula_structural   Li4MnNb(WO6)2
_chemical_formula_sum   'Li4 Mn1 Nb1 W2 O12'
_cell_volume   215.55414619
_cell_formula_units_Z   1
loop_
 _symmetry_equiv_pos_site_id
 _symmetry_equiv_pos_as_xyz
  1  'x, y, z'
loop_
 _atom_site_type_symbol
 _atom_site_label
 _atom_site_symmetry_multiplicity
 _atom_site_fract_x
 _atom_site_fract_y
 _atom_site_fract_z
 _atom_site_occupancy
  Li  Li0  1  0.002781  0.403402  0.272862  1
  Li  Li1  1  0.495183  0.933933  0.801634  1
  Li  Li2  1  0.998063  0.423562  0.799231  1
  Li  Li3  1  0.499454  0.971401  0.252057  1
  Mn  Mn4  1  0.999038  0.998409  0.997713  1
  Nb  Nb5  1  0.499333  0.482749  0.517366  1
  W  W6  1  0.994754  0.980039  0.496814  1
  W  W7  1  0.507086  0.502749  0.013212  1
  O  O8  1  0.309396  0.195324  0.427279  1
  O  O9  1  0.129599  0.020773  0.724900  1
  O  O10  1  0.312885  0.810337  0.043770  1
  O  O11  1  0.181390  0.692962  0.426615  1
  O  O12  1  0.794827  0.700829  0.935586  1
  O  O13  1  0.377885  0.509476  0.749366  1
  O  O14  1  0.620290  0.519009  0.246164  1
  O  O15  1  0.198868  0.313883  0.047149  1
  O  O16  1  0.822665  0.326323  0.558094  1
  O  O17  1  0.697956  0.210365  0.936782  1
  O  O18  1  0.876465  0.036170  0.266696  1
  O  O19  1  0.682082  0.825903  0.557912  1
