# generated using pymatgen
data_Ga2CuO4
_symmetry_space_group_name_H-M   'P 1'
_cell_length_a   5.95704680
_cell_length_b   5.95704680
_cell_length_c   5.95704680
_cell_angle_alpha   60.00000000
_cell_angle_beta   60.00000000
_cell_angle_gamma   60.00000000
_symmetry_Int_Tables_number   1
_chemical_formula_structural   Ga2CuO4
_chemical_formula_sum   'Ga4 Cu2 O8'
_cell_volume   149.47826138
_cell_formula_units_Z   2
loop_
 _symmetry_equiv_pos_site_id
 _symmetry_equiv_pos_as_xyz
  1  'x, y, z'
loop_
 _atom_site_type_symbol
 _atom_site_label
 _atom_site_symmetry_multiplicity
 _atom_site_fract_x
 _atom_site_fract_y
 _atom_site_fract_z
 _atom_site_occupancy
  Ga  Ga0  1  0.625000  0.125000  0.625000  1
  Ga  Ga1  1  0.625000  0.625000  0.625000  1
  Ga  Ga2  1  0.625000  0.625000  0.125000  1
  Ga  Ga3  1  0.125000  0.625000  0.625000  1
  Cu  Cu4  1  0.250000  0.250000  0.250000  1
  Cu  Cu5  1  0.000000  0.000000  0.000000  1
  O  O6  1  0.840994  0.386335  0.386335  1
  O  O7  1  0.386335  0.386335  0.840994  1
  O  O8  1  0.863665  0.863665  0.409006  1
  O  O9  1  0.409006  0.863665  0.863665  1
  O  O10  1  0.863665  0.863665  0.863665  1
  O  O11  1  0.863665  0.409006  0.863665  1
  O  O12  1  0.386335  0.386335  0.386335  1
  O  O13  1  0.386335  0.840994  0.386335  1
