# generated using pymatgen
data_SrLaMnFeO6
_symmetry_space_group_name_H-M   'P 1'
_cell_length_a   5.53450351
_cell_length_b   11.06962870
_cell_length_c   7.84325371
_cell_angle_alpha   90.00000000
_cell_angle_beta   90.44574079
_cell_angle_gamma   90.00000000
_symmetry_Int_Tables_number   1
_chemical_formula_structural   SrLaMnFeO6
_chemical_formula_sum   'Sr4 La4 Mn4 Fe4 O24'
_cell_volume   480.50160514
_cell_formula_units_Z   4
loop_
 _symmetry_equiv_pos_site_id
 _symmetry_equiv_pos_as_xyz
  1  'x, y, z'
loop_
 _atom_site_type_symbol
 _atom_site_label
 _atom_site_symmetry_multiplicity
 _atom_site_fract_x
 _atom_site_fract_y
 _atom_site_fract_z
 _atom_site_occupancy
  Sr  Sr0  1  0.750000  0.379012  0.500000  1
  Sr  Sr1  1  0.250000  0.618779  0.000000  1
  Sr  Sr2  1  0.750000  0.381221  0.000000  1
  Sr  Sr3  1  0.250000  0.620988  0.500000  1
  La  La4  1  0.750000  0.873483  0.500000  1
  La  La5  1  0.250000  0.131285  0.000000  1
  La  La6  1  0.750000  0.868715  0.000000  1
  La  La7  1  0.250000  0.126517  0.500000  1
  Mn  Mn8  1  0.252337  0.376634  0.249120  1
  Mn  Mn9  1  0.747663  0.623366  0.750880  1
  Mn  Mn10  1  0.247663  0.376634  0.750880  1
  Mn  Mn11  1  0.752337  0.623366  0.249120  1
  Fe  Fe12  1  0.247992  0.872558  0.250817  1
  Fe  Fe13  1  0.752008  0.127442  0.749183  1
  Fe  Fe14  1  0.252008  0.872558  0.749183  1
  Fe  Fe15  1  0.747992  0.127442  0.250817  1
  O  O16  1  0.017109  0.508861  0.733066  1
  O  O17  1  0.250000  0.385613  0.000000  1
  O  O18  1  0.482891  0.508861  0.266934  1
  O  O19  1  0.530539  0.762086  0.231926  1
  O  O20  1  0.517109  0.491139  0.733066  1
  O  O21  1  0.750000  0.649506  0.500000  1
  O  O22  1  0.750000  0.614387  0.000000  1
  O  O23  1  0.969461  0.762086  0.768074  1
  O  O24  1  0.982891  0.491139  0.266934  1
  O  O25  1  0.027707  0.011866  0.725860  1
  O  O26  1  0.005883  0.743252  0.228990  1
  O  O27  1  0.250000  0.899722  0.000000  1
  O  O28  1  0.250000  0.856637  0.500000  1
  O  O29  1  0.472293  0.011866  0.274140  1
  O  O30  1  0.494117  0.743252  0.771010  1
  O  O31  1  0.505883  0.256748  0.228990  1
  O  O32  1  0.527707  0.988134  0.725860  1
  O  O33  1  0.750000  0.143363  0.500000  1
  O  O34  1  0.750000  0.100278  0.000000  1
  O  O35  1  0.994117  0.256748  0.771010  1
  O  O36  1  0.972293  0.988134  0.274140  1
  O  O37  1  0.030539  0.237914  0.231926  1
  O  O38  1  0.250000  0.350494  0.500000  1
  O  O39  1  0.469461  0.237914  0.768074  1
