# generated using pymatgen
data_LiCu5(PO4)2
_symmetry_space_group_name_H-M   'P 1'
_cell_length_a   5.62092717
_cell_length_b   6.23277203
_cell_length_c   10.30148613
_cell_angle_alpha   89.48498923
_cell_angle_beta   88.27299317
_cell_angle_gamma   88.19528326
_symmetry_Int_Tables_number   1
_chemical_formula_structural   LiCu5(PO4)2
_chemical_formula_sum   'Li2 Cu10 P4 O16'
_cell_volume   360.54728419
_cell_formula_units_Z   2
loop_
 _symmetry_equiv_pos_site_id
 _symmetry_equiv_pos_as_xyz
  1  'x, y, z'
loop_
 _atom_site_type_symbol
 _atom_site_label
 _atom_site_symmetry_multiplicity
 _atom_site_fract_x
 _atom_site_fract_y
 _atom_site_fract_z
 _atom_site_occupancy
  Li  Li0  1  0.138672  0.004061  0.253369  1
  Li  Li1  1  0.689168  0.244309  0.757253  1
  Cu  Cu2  1  0.255117  0.995537  0.770714  1
  Cu  Cu3  1  0.377523  0.273860  0.488935  1
  Cu  Cu4  1  0.332485  0.217126  0.990287  1
  Cu  Cu5  1  0.648819  0.287513  0.277338  1
  Cu  Cu6  1  0.743399  0.513149  0.016224  1
  Cu  Cu7  1  0.745897  0.498008  0.503389  1
  Cu  Cu8  1  0.634259  0.698703  0.277729  1
  Cu  Cu9  1  0.648330  0.755175  0.773102  1
  Cu  Cu10  1  0.372173  0.734257  0.500684  1
  Cu  Cu11  1  0.365615  0.763492  0.987229  1
  P  P12  1  0.832610  0.007431  0.003373  1
  P  P13  1  0.853500  0.001103  0.502656  1
  P  P14  1  0.157230  0.488407  0.739793  1
  P  P15  1  0.174191  0.504951  0.236604  1
  O  O16  1  0.831656  0.008737  0.352781  1
  O  O17  1  0.116668  0.997346  0.541888  1
  O  O18  1  0.844292  0.997426  0.853152  1
  O  O19  1  0.082095  0.007164  0.063352  1
  O  O20  1  0.714995  0.196974  0.567958  1
  O  O21  1  0.685463  0.212211  0.049582  1
  O  O22  1  0.321531  0.294714  0.786307  1
  O  O23  1  0.292133  0.290062  0.288192  1
  O  O24  1  0.177047  0.506437  0.086908  1
  O  O25  1  0.918095  0.507223  0.296228  1
  O  O26  1  0.157769  0.497373  0.589427  1
  O  O27  1  0.901028  0.479025  0.796669  1
  O  O28  1  0.287884  0.713773  0.287932  1
  O  O29  1  0.282870  0.689216  0.793110  1
  O  O30  1  0.720849  0.802047  0.560888  1
  O  O31  1  0.696638  0.813190  0.064352  1
