# generated using pymatgen
data_Li3Cu2(SO4)3
_symmetry_space_group_name_H-M   'P 1'
_cell_length_a   9.14556259
_cell_length_b   9.14556259
_cell_length_c   9.14556259
_cell_angle_alpha   56.03707040
_cell_angle_beta   56.03707040
_cell_angle_gamma   56.03707040
_symmetry_Int_Tables_number   1
_chemical_formula_structural   Li3Cu2(SO4)3
_chemical_formula_sum   'Li6 Cu4 S6 O24'
_cell_volume   491.24780704
_cell_formula_units_Z   2
loop_
 _symmetry_equiv_pos_site_id
 _symmetry_equiv_pos_as_xyz
  1  'x, y, z'
loop_
 _atom_site_type_symbol
 _atom_site_label
 _atom_site_symmetry_multiplicity
 _atom_site_fract_x
 _atom_site_fract_y
 _atom_site_fract_z
 _atom_site_occupancy
  Li  Li0  1  0.271774  0.657706  0.921517  1
  Li  Li1  1  0.342294  0.078483  0.728226  1
  Li  Li2  1  0.078483  0.728226  0.342294  1
  Li  Li3  1  0.921517  0.271774  0.657706  1
  Li  Li4  1  0.657706  0.921517  0.271774  1
  Li  Li5  1  0.728226  0.342294  0.078483  1
  Cu  Cu6  1  0.148003  0.148003  0.148003  1
  Cu  Cu7  1  0.343979  0.343979  0.343979  1
  Cu  Cu8  1  0.656021  0.656021  0.656021  1
  Cu  Cu9  1  0.851997  0.851997  0.851997  1
  S  S10  1  0.046248  0.453259  0.749729  1
  S  S11  1  0.546741  0.250271  0.953752  1
  S  S12  1  0.250271  0.953752  0.546741  1
  S  S13  1  0.749729  0.046248  0.453259  1
  S  S14  1  0.453259  0.749729  0.046248  1
  S  S15  1  0.953752  0.546741  0.250271  1
  O  O16  1  0.204029  0.140397  0.550946  1
  O  O17  1  0.140397  0.550946  0.204029  1
  O  O18  1  0.012898  0.594321  0.804774  1
  O  O19  1  0.148665  0.257880  0.857279  1
  O  O20  1  0.550946  0.204029  0.140397  1
  O  O21  1  0.142721  0.851335  0.742120  1
  O  O22  1  0.405679  0.195226  0.987102  1
  O  O23  1  0.155123  0.494937  0.543047  1
  O  O24  1  0.505063  0.456953  0.844877  1
  O  O25  1  0.195226  0.987102  0.405679  1
  O  O26  1  0.742120  0.142721  0.851335  1
  O  O27  1  0.456953  0.844877  0.505063  1
  O  O28  1  0.543047  0.155123  0.494937  1
  O  O29  1  0.257880  0.857279  0.148665  1
  O  O30  1  0.804774  0.012898  0.594321  1
  O  O31  1  0.494937  0.543047  0.155123  1
  O  O32  1  0.844877  0.505063  0.456953  1
  O  O33  1  0.594321  0.804774  0.012898  1
  O  O34  1  0.857279  0.148665  0.257880  1
  O  O35  1  0.449054  0.795971  0.859603  1
  O  O36  1  0.851335  0.742120  0.142721  1
  O  O37  1  0.987102  0.405679  0.195226  1
  O  O38  1  0.859603  0.449054  0.795971  1
  O  O39  1  0.795971  0.859603  0.449054  1
