# generated using pymatgen
data_CrO2
_symmetry_space_group_name_H-M   'P 1'
_cell_length_a   2.97900825
_cell_length_b   2.97900825
_cell_length_c   9.55146944
_cell_angle_alpha   81.41095591
_cell_angle_beta   98.58904409
_cell_angle_gamma   122.65040895
_symmetry_Int_Tables_number   1
_chemical_formula_structural   CrO2
_chemical_formula_sum   'Cr2 O4'
_cell_volume   70.32818318
_cell_formula_units_Z   2
loop_
 _symmetry_equiv_pos_site_id
 _symmetry_equiv_pos_as_xyz
  1  'x, y, z'
loop_
 _atom_site_type_symbol
 _atom_site_label
 _atom_site_symmetry_multiplicity
 _atom_site_fract_x
 _atom_site_fract_y
 _atom_site_fract_z
 _atom_site_occupancy
  Cr  Cr0  1  0.260646  0.739354  0.752641  1
  Cr  Cr1  1  0.739354  0.260646  0.247359  1
  O  O2  1  0.117178  0.882822  0.349591  1
  O  O3  1  0.626338  0.373662  0.853737  1
  O  O4  1  0.373662  0.626338  0.146263  1
  O  O5  1  0.882822  0.117178  0.650409  1
