# generated using pymatgen
data_Li6Fe5NiO12
_symmetry_space_group_name_H-M   'P 1'
_cell_length_a   5.10443150
_cell_length_b   5.10443150
_cell_length_c   10.15238339
_cell_angle_alpha   85.78232805
_cell_angle_beta   94.21767195
_cell_angle_gamma   60.04778988
_symmetry_Int_Tables_number   1
_chemical_formula_structural   Li6Fe5NiO12
_chemical_formula_sum   'Li6 Fe5 Ni1 O12'
_cell_volume   226.70417324
_cell_formula_units_Z   1
loop_
 _symmetry_equiv_pos_site_id
 _symmetry_equiv_pos_as_xyz
  1  'x, y, z'
loop_
 _atom_site_type_symbol
 _atom_site_label
 _atom_site_symmetry_multiplicity
 _atom_site_fract_x
 _atom_site_fract_y
 _atom_site_fract_z
 _atom_site_occupancy
  Li  Li0  1  0.893074  0.106926  0.249144  1
  Li  Li1  1  0.436838  0.230802  0.756964  1
  Li  Li2  1  0.769198  0.563162  0.756964  1
  Li  Li3  1  0.230802  0.436838  0.243036  1
  Li  Li4  1  0.563162  0.769198  0.243036  1
  Li  Li5  1  0.106926  0.893074  0.750856  1
  Fe  Fe6  1  0.500000  0.500000  0.000000  1
  Fe  Fe7  1  0.166411  0.166411  0.000000  1
  Fe  Fe8  1  0.833589  0.833589  0.000000  1
  Fe  Fe9  1  0.332451  0.332451  0.500000  1
  Fe  Fe10  1  0.667549  0.667549  0.500000  1
  Ni  Ni11  1  1.000000  1.000000  0.500000  1
  O  O12  1  0.800452  0.199548  0.886961  1
  O  O13  1  0.305540  0.035539  0.386168  1
  O  O14  1  0.964461  0.694460  0.386168  1
  O  O15  1  0.532383  0.134473  0.112960  1
  O  O16  1  0.865527  0.467617  0.112960  1
  O  O17  1  0.620231  0.379769  0.385521  1
  O  O18  1  0.379769  0.620231  0.614479  1
  O  O19  1  0.134473  0.532383  0.887040  1
  O  O20  1  0.467617  0.865527  0.887040  1
  O  O21  1  0.035539  0.305540  0.613832  1
  O  O22  1  0.694460  0.964461  0.613832  1
  O  O23  1  0.199548  0.800452  0.113039  1
