# generated using pymatgen
data_LiSiNiO4
_symmetry_space_group_name_H-M   'P 1'
_cell_length_a   5.72631553
_cell_length_b   5.72631553
_cell_length_c   5.72631553
_cell_angle_alpha   123.72307301
_cell_angle_beta   120.52567570
_cell_angle_gamma   86.38201237
_symmetry_Int_Tables_number   1
_chemical_formula_structural   LiSiNiO4
_chemical_formula_sum   'Li2 Si2 Ni2 O8'
_cell_volume   128.09642478
_cell_formula_units_Z   2
loop_
 _symmetry_equiv_pos_site_id
 _symmetry_equiv_pos_as_xyz
  1  'x, y, z'
loop_
 _atom_site_type_symbol
 _atom_site_label
 _atom_site_symmetry_multiplicity
 _atom_site_fract_x
 _atom_site_fract_y
 _atom_site_fract_z
 _atom_site_occupancy
  Li  Li0  1  0.626756  0.876756  0.750000  1
  Li  Li1  1  0.373244  0.123244  0.250000  1
  Si  Si2  1  0.000000  0.000000  0.500000  1
  Si  Si3  1  0.000000  0.500000  0.000000  1
  Ni  Ni4  1  0.500000  0.500000  0.000000  1
  Ni  Ni5  1  0.000000  0.500000  0.500000  1
  O  O6  1  0.209414  0.248742  0.960672  1
  O  O7  1  0.218098  0.236356  0.518258  1
  O  O8  1  0.781902  0.300160  0.018258  1
  O  O9  1  0.781902  0.763644  0.481742  1
  O  O10  1  0.790586  0.751258  0.039328  1
  O  O11  1  0.211929  0.751258  0.460672  1
  O  O12  1  0.788071  0.248742  0.539328  1
  O  O13  1  0.218098  0.699840  0.981742  1
