# generated using pymatgen
data_TiMnCr(PO4)3
_symmetry_space_group_name_H-M   'P 1'
_cell_length_a   8.64397292
_cell_length_b   8.64397292
_cell_length_c   8.64397292
_cell_angle_alpha   59.80551798
_cell_angle_beta   59.80551798
_cell_angle_gamma   59.80551798
_symmetry_Int_Tables_number   1
_chemical_formula_structural   TiMnCr(PO4)3
_chemical_formula_sum   'Ti2 Mn2 Cr2 P6 O24'
_cell_volume   454.67769020
_cell_formula_units_Z   2
loop_
 _symmetry_equiv_pos_site_id
 _symmetry_equiv_pos_as_xyz
  1  'x, y, z'
loop_
 _atom_site_type_symbol
 _atom_site_label
 _atom_site_symmetry_multiplicity
 _atom_site_fract_x
 _atom_site_fract_y
 _atom_site_fract_z
 _atom_site_occupancy
  Ti  Ti0  1  0.855104  0.855104  0.855104  1
  Ti  Ti1  1  0.355104  0.355104  0.355104  1
  Mn  Mn2  1  0.001203  0.001203  0.001203  1
  Mn  Mn3  1  0.501203  0.501203  0.501203  1
  Cr  Cr4  1  0.642949  0.642949  0.642949  1
  Cr  Cr5  1  0.142949  0.142949  0.142949  1
  P  P6  1  0.250368  0.540098  0.957334  1
  P  P7  1  0.957334  0.250368  0.540098  1
  P  P8  1  0.540098  0.957334  0.250368  1
  P  P9  1  0.457334  0.040098  0.750368  1
  P  P10  1  0.040098  0.750368  0.457334  1
  P  P11  1  0.750368  0.457334  0.040098  1
  O  O12  1  0.693612  0.493852  0.882836  1
  O  O13  1  0.493852  0.882836  0.693612  1
  O  O14  1  0.085209  0.735655  0.943300  1
  O  O15  1  0.882836  0.693612  0.493852  1
  O  O16  1  0.193612  0.382836  0.993852  1
  O  O17  1  0.414946  0.558753  0.764686  1
  O  O18  1  0.943300  0.085209  0.735655  1
  O  O19  1  0.764686  0.414946  0.558753  1
  O  O20  1  0.622549  0.000594  0.806952  1
  O  O21  1  0.558753  0.764686  0.414946  1
  O  O22  1  0.264686  0.058753  0.914946  1
  O  O23  1  0.000594  0.806952  0.622549  1
  O  O24  1  0.993852  0.193612  0.382836  1
  O  O25  1  0.735655  0.943300  0.085209  1
  O  O26  1  0.443300  0.235655  0.585209  1
  O  O27  1  0.382836  0.993852  0.193612  1
  O  O28  1  0.235655  0.585209  0.443300  1
  O  O29  1  0.058753  0.914946  0.264686  1
  O  O30  1  0.585209  0.443300  0.235655  1
  O  O31  1  0.806952  0.622549  0.000594  1
  O  O32  1  0.122549  0.306952  0.500594  1
  O  O33  1  0.914946  0.264686  0.058753  1
  O  O34  1  0.500594  0.122549  0.306952  1
  O  O35  1  0.306952  0.500594  0.122549  1
