# generated using pymatgen
data_Li3Co2(PO4)3
_symmetry_space_group_name_H-M   'P 1'
_cell_length_a   8.48855390
_cell_length_b   8.48855390
_cell_length_c   8.41007118
_cell_angle_alpha   62.38991214
_cell_angle_beta   117.61008786
_cell_angle_gamma   117.72814708
_symmetry_Int_Tables_number   1
_chemical_formula_structural   Li3Co2(PO4)3
_chemical_formula_sum   'Li6 Co4 P6 O24'
_cell_volume   450.97120471
_cell_formula_units_Z   2
loop_
 _symmetry_equiv_pos_site_id
 _symmetry_equiv_pos_as_xyz
  1  'x, y, z'
loop_
 _atom_site_type_symbol
 _atom_site_label
 _atom_site_symmetry_multiplicity
 _atom_site_fract_x
 _atom_site_fract_y
 _atom_site_fract_z
 _atom_site_occupancy
  Li  Li0  1  0.994922  0.492801  0.271635  1
  Li  Li1  1  0.850002  0.850002  0.000000  1
  Li  Li2  1  0.492801  0.994922  0.728365  1
  Li  Li3  1  0.152714  0.152714  0.500000  1
  Li  Li4  1  0.747479  0.344542  0.905158  1
  Li  Li5  1  0.344542  0.747479  0.094842  1
  Co  Co6  1  0.853143  0.637072  0.395189  1
  Co  Co7  1  0.637072  0.853143  0.604811  1
  Co  Co8  1  0.351669  0.147751  0.897043  1
  Co  Co9  1  0.147751  0.351669  0.102957  1
  P  P10  1  0.248472  0.949816  0.299601  1
  P  P11  1  0.949816  0.248472  0.700399  1
  P  P12  1  0.546785  0.546785  0.000000  1
  P  P13  1  0.456783  0.456783  0.500000  1
  P  P14  1  0.040137  0.750473  0.794719  1
  P  P15  1  0.750473  0.040137  0.205281  1
  O  O16  1  0.700567  0.994500  0.377996  1
  O  O17  1  0.493654  0.617898  0.561143  1
  O  O18  1  0.079207  0.767298  0.295155  1
  O  O19  1  0.882115  0.802904  0.780051  1
  O  O20  1  0.404992  0.930766  0.490687  1
  O  O21  1  0.189454  0.113457  0.266748  1
  O  O22  1  0.930766  0.404992  0.509313  1
  O  O23  1  0.767298  0.079207  0.704845  1
  O  O24  1  0.566700  0.741111  0.844348  1
  O  O25  1  0.617898  0.493654  0.438857  1
  O  O26  1  0.262670  0.436809  0.341243  1
  O  O27  1  0.994500  0.700567  0.622004  1
  O  O28  1  0.987218  0.313555  0.863174  1
  O  O29  1  0.741111  0.566700  0.155652  1
  O  O30  1  0.387380  0.513628  0.063801  1
  O  O31  1  0.436809  0.262670  0.658757  1
  O  O32  1  0.233746  0.910076  0.810966  1
  O  O33  1  0.067733  0.588996  0.986611  1
  O  O34  1  0.802904  0.882115  0.219949  1
  O  O35  1  0.588996  0.067733  0.013389  1
  O  O36  1  0.113457  0.189454  0.733252  1
  O  O37  1  0.910076  0.233746  0.189034  1
  O  O38  1  0.513628  0.387380  0.936199  1
  O  O39  1  0.313555  0.987218  0.136826  1
