# generated using pymatgen
data_Mn3(PO4)2
_symmetry_space_group_name_H-M   'P 1'
_cell_length_a   5.27420108
_cell_length_b   8.74702273
_cell_length_c   9.22241563
_cell_angle_alpha   90.00000000
_cell_angle_beta   121.78445746
_cell_angle_gamma   90.00000000
_symmetry_Int_Tables_number   1
_chemical_formula_structural   Mn3(PO4)2
_chemical_formula_sum   'Mn6 P4 O16'
_cell_volume   361.65855935
_cell_formula_units_Z   2
loop_
 _symmetry_equiv_pos_site_id
 _symmetry_equiv_pos_as_xyz
  1  'x, y, z'
loop_
 _atom_site_type_symbol
 _atom_site_label
 _atom_site_symmetry_multiplicity
 _atom_site_fract_x
 _atom_site_fract_y
 _atom_site_fract_z
 _atom_site_occupancy
  Mn  Mn0  1  0.000000  0.000000  0.000000  1
  Mn  Mn1  1  0.976043  0.357752  0.883465  1
  Mn  Mn2  1  0.023957  0.857752  0.616535  1
  Mn  Mn3  1  0.000000  0.500000  0.500000  1
  Mn  Mn4  1  0.976043  0.142248  0.383465  1
  Mn  Mn5  1  0.023957  0.642248  0.116535  1
  P  P6  1  0.337734  0.306819  0.301162  1
  P  P7  1  0.662266  0.806819  0.198838  1
  P  P8  1  0.337734  0.193181  0.801162  1
  P  P9  1  0.662266  0.693181  0.698838  1
  O  O10  1  0.189447  0.419360  0.146839  1
  O  O11  1  0.802445  0.856488  0.757774  1
  O  O12  1  0.322515  0.805251  0.125502  1
  O  O13  1  0.732100  0.644266  0.561882  1
  O  O14  1  0.677485  0.305251  0.374498  1
  O  O15  1  0.267900  0.144266  0.938118  1
  O  O16  1  0.810553  0.919360  0.353161  1
  O  O17  1  0.197555  0.356488  0.742226  1
  O  O18  1  0.802445  0.643512  0.257774  1
  O  O19  1  0.189447  0.080640  0.646839  1
  O  O20  1  0.732100  0.855734  0.061882  1
  O  O21  1  0.322515  0.694749  0.625502  1
  O  O22  1  0.267900  0.355734  0.438118  1
  O  O23  1  0.677485  0.194749  0.874498  1
  O  O24  1  0.197555  0.143512  0.242226  1
  O  O25  1  0.810553  0.580640  0.853161  1
