# generated using pymatgen
data_Li2NiSn3(PO4)6
_symmetry_space_group_name_H-M   'P 1'
_cell_length_a   8.88043963
_cell_length_b   8.88043963
_cell_length_c   8.88043963
_cell_angle_alpha   59.23452373
_cell_angle_beta   59.23452373
_cell_angle_gamma   59.23452373
_symmetry_Int_Tables_number   1
_chemical_formula_structural   Li2NiSn3(PO4)6
_chemical_formula_sum   'Li2 Ni1 Sn3 P6 O24'
_cell_volume   486.57401346
_cell_formula_units_Z   1
loop_
 _symmetry_equiv_pos_site_id
 _symmetry_equiv_pos_as_xyz
  1  'x, y, z'
loop_
 _atom_site_type_symbol
 _atom_site_label
 _atom_site_symmetry_multiplicity
 _atom_site_fract_x
 _atom_site_fract_y
 _atom_site_fract_z
 _atom_site_occupancy
  Li  Li0  1  0.017559  0.017559  0.017559  1
  Li  Li1  1  0.499030  0.499030  0.499030  1
  Ni  Ni2  1  0.146116  0.146116  0.146116  1
  Sn  Sn3  1  0.855941  0.855941  0.855941  1
  Sn  Sn4  1  0.643696  0.643696  0.643696  1
  Sn  Sn5  1  0.354406  0.354406  0.354406  1
  P  P6  1  0.248751  0.538781  0.956748  1
  P  P7  1  0.956748  0.248751  0.538781  1
  P  P8  1  0.538781  0.956748  0.248751  1
  P  P9  1  0.450742  0.045388  0.753762  1
  P  P10  1  0.045388  0.753762  0.450742  1
  P  P11  1  0.753762  0.450742  0.045388  1
  O  O12  1  0.700645  0.484992  0.886891  1
  O  O13  1  0.484992  0.886891  0.700645  1
  O  O14  1  0.085166  0.728522  0.937791  1
  O  O15  1  0.886891  0.700645  0.484992  1
  O  O16  1  0.413309  0.560271  0.765419  1
  O  O17  1  0.200995  0.380648  0.990888  1
  O  O18  1  0.937791  0.085166  0.728522  1
  O  O19  1  0.765419  0.413309  0.560271  1
  O  O20  1  0.560271  0.765419  0.413309  1
  O  O21  1  0.613887  0.012281  0.797793  1
  O  O22  1  0.265001  0.065032  0.917148  1
  O  O23  1  0.012281  0.797793  0.613887  1
  O  O24  1  0.990888  0.200995  0.380648  1
  O  O25  1  0.728522  0.937791  0.085166  1
  O  O26  1  0.380648  0.990888  0.200995  1
  O  O27  1  0.433789  0.234622  0.587356  1
  O  O28  1  0.234622  0.587356  0.433789  1
  O  O29  1  0.065032  0.917148  0.265001  1
  O  O30  1  0.797793  0.613887  0.012281  1
  O  O31  1  0.587356  0.433789  0.234622  1
  O  O32  1  0.110891  0.301666  0.514073  1
  O  O33  1  0.917148  0.265001  0.065032  1
  O  O34  1  0.514073  0.110891  0.301666  1
  O  O35  1  0.301666  0.514073  0.110891  1
