# generated using pymatgen
data_Li2VOF4
_symmetry_space_group_name_H-M   'P 1'
_cell_length_a   5.47369466
_cell_length_b   5.47369466
_cell_length_c   10.24801321
_cell_angle_alpha   90.00000000
_cell_angle_beta   90.00000000
_cell_angle_gamma   141.27942360
_symmetry_Int_Tables_number   1
_chemical_formula_structural   Li2VOF4
_chemical_formula_sum   'Li4 V2 O2 F8'
_cell_volume   192.06313685
_cell_formula_units_Z   2
loop_
 _symmetry_equiv_pos_site_id
 _symmetry_equiv_pos_as_xyz
  1  'x, y, z'
loop_
 _atom_site_type_symbol
 _atom_site_label
 _atom_site_symmetry_multiplicity
 _atom_site_fract_x
 _atom_site_fract_y
 _atom_site_fract_z
 _atom_site_occupancy
  Li  Li0  1  0.875631  0.124369  0.936689  1
  Li  Li1  1  0.875631  0.124369  0.563311  1
  Li  Li2  1  0.124369  0.875631  0.063311  1
  Li  Li3  1  0.124369  0.875631  0.436689  1
  V  V4  1  0.812927  0.187073  0.250000  1
  V  V5  1  0.187073  0.812927  0.750000  1
  O  O6  1  0.707199  0.292801  0.750000  1
  O  O7  1  0.292801  0.707199  0.250000  1
  F  F8  1  0.685149  0.314851  0.397567  1
  F  F9  1  0.685149  0.314851  0.102433  1
  F  F10  1  0.943133  0.056867  0.383210  1
  F  F11  1  0.943133  0.056867  0.116790  1
  F  F12  1  0.056867  0.943133  0.616790  1
  F  F13  1  0.056867  0.943133  0.883210  1
  F  F14  1  0.314851  0.685149  0.897567  1
  F  F15  1  0.314851  0.685149  0.602433  1
