# generated using pymatgen
data_Li5Fe3(SbO5)2
_symmetry_space_group_name_H-M   'P 1'
_cell_length_a   5.35623983
_cell_length_b   5.36501684
_cell_length_c   8.23978169
_cell_angle_alpha   108.09095799
_cell_angle_beta   102.59830298
_cell_angle_gamma   100.70295208
_symmetry_Int_Tables_number   1
_chemical_formula_structural   Li5Fe3(SbO5)2
_chemical_formula_sum   'Li5 Fe3 Sb2 O10'
_cell_volume   211.29982461
_cell_formula_units_Z   1
loop_
 _symmetry_equiv_pos_site_id
 _symmetry_equiv_pos_as_xyz
  1  'x, y, z'
loop_
 _atom_site_type_symbol
 _atom_site_label
 _atom_site_symmetry_multiplicity
 _atom_site_fract_x
 _atom_site_fract_y
 _atom_site_fract_z
 _atom_site_occupancy
  Li  Li0  1  0.894763  0.229947  0.601663  1
  Li  Li1  1  0.298790  0.410969  0.204558  1
  Li  Li2  1  0.500000  0.500000  0.500000  1
  Li  Li3  1  0.701210  0.589031  0.795442  1
  Li  Li4  1  0.105237  0.770053  0.398337  1
  Fe  Fe5  1  0.500000  0.000000  0.000000  1
  Fe  Fe6  1  0.898678  0.702054  0.102428  1
  Fe  Fe7  1  0.101322  0.297946  0.897572  1
  Sb  Sb8  1  0.709791  0.109961  0.300284  1
  Sb  Sb9  1  0.290209  0.890039  0.699716  1
  O  O10  1  0.080351  0.054656  0.156768  1
  O  O11  1  0.699450  0.342308  0.064386  1
  O  O12  1  0.327309  0.138982  0.453704  1
  O  O13  1  0.487020  0.216521  0.759033  1
  O  O14  1  0.900886  0.442812  0.343712  1
  O  O15  1  0.099114  0.557188  0.656288  1
  O  O16  1  0.512980  0.783479  0.240967  1
  O  O17  1  0.672691  0.861018  0.546296  1
  O  O18  1  0.300550  0.657692  0.935614  1
  O  O19  1  0.919649  0.945344  0.843232  1
