# generated using pymatgen
data_Li2Ni3SbO8
_symmetry_space_group_name_H-M   'P 1'
_cell_length_a   6.01193492
_cell_length_b   6.01193492
_cell_length_c   6.01193492
_cell_angle_alpha   58.68968307
_cell_angle_beta   58.68968307
_cell_angle_gamma   58.68968307
_symmetry_Int_Tables_number   1
_chemical_formula_structural   Li2Ni3SbO8
_chemical_formula_sum   'Li2 Ni3 Sb1 O8'
_cell_volume   149.04770599
_cell_formula_units_Z   1
loop_
 _symmetry_equiv_pos_site_id
 _symmetry_equiv_pos_as_xyz
  1  'x, y, z'
loop_
 _atom_site_type_symbol
 _atom_site_label
 _atom_site_symmetry_multiplicity
 _atom_site_fract_x
 _atom_site_fract_y
 _atom_site_fract_z
 _atom_site_occupancy
  Li  Li0  1  0.873853  0.873853  0.873853  1
  Li  Li1  1  0.126147  0.126147  0.126147  1
  Ni  Ni2  1  0.500000  0.500000  0.000000  1
  Ni  Ni3  1  0.000000  0.500000  0.500000  1
  Ni  Ni4  1  0.500000  0.000000  0.500000  1
  Sb  Sb5  1  0.500000  0.500000  0.500000  1
  O  O6  1  0.729398  0.729398  0.729398  1
  O  O7  1  0.737995  0.278964  0.737995  1
  O  O8  1  0.278964  0.737995  0.737995  1
  O  O9  1  0.737995  0.737995  0.278964  1
  O  O10  1  0.262005  0.262005  0.721036  1
  O  O11  1  0.721036  0.262005  0.262005  1
  O  O12  1  0.262005  0.721036  0.262005  1
  O  O13  1  0.270602  0.270602  0.270602  1
