# generated using pymatgen
data_KLiSb3O8
_symmetry_space_group_name_H-M   'P 1'
_cell_length_a   6.48632972
_cell_length_b   7.64739162
_cell_length_c   7.69557259
_cell_angle_alpha   86.03959411
_cell_angle_beta   78.50686993
_cell_angle_gamma   77.37970714
_symmetry_Int_Tables_number   1
_chemical_formula_structural   KLiSb3O8
_chemical_formula_sum   'K2 Li2 Sb6 O16'
_cell_volume   364.90523228
_cell_formula_units_Z   2
loop_
 _symmetry_equiv_pos_site_id
 _symmetry_equiv_pos_as_xyz
  1  'x, y, z'
loop_
 _atom_site_type_symbol
 _atom_site_label
 _atom_site_symmetry_multiplicity
 _atom_site_fract_x
 _atom_site_fract_y
 _atom_site_fract_z
 _atom_site_occupancy
  K  K0  1  0.810041  0.971415  0.999803  1
  K  K1  1  0.308778  0.986373  0.975544  1
  Li  Li2  1  0.440398  0.780527  0.493878  1
  Li  Li3  1  0.813020  0.524961  0.221991  1
  Sb  Sb4  1  0.920217  0.815666  0.508191  1
  Sb  Sb5  1  0.171095  0.486187  0.833627  1
  Sb  Sb6  1  0.667489  0.491849  0.827852  1
  Sb  Sb7  1  0.315902  0.523101  0.195393  1
  Sb  Sb8  1  0.093123  0.178960  0.474980  1
  Sb  Sb9  1  0.583136  0.180546  0.477549  1
  O  O10  1  0.080663  0.961146  0.630594  1
  O  O11  1  0.633359  0.971274  0.645301  1
  O  O12  1  0.930921  0.648821  0.723190  1
  O  O13  1  0.393952  0.606714  0.705393  1
  O  O14  1  0.958177  0.344905  0.935702  1
  O  O15  1  0.406999  0.348105  0.974206  1
  O  O16  1  0.218698  0.711908  0.374200  1
  O  O17  1  0.749423  0.717185  0.385173  1
  O  O18  1  0.275515  0.283424  0.627844  1
  O  O19  1  0.783044  0.296340  0.588347  1
  O  O20  1  0.100818  0.647666  0.044318  1
  O  O21  1  0.545677  0.645505  0.058065  1
  O  O22  1  0.092457  0.380789  0.301440  1
  O  O23  1  0.565078  0.380853  0.300350  1
  O  O24  1  0.903548  0.053843  0.339493  1
  O  O25  1  0.398070  0.061933  0.357577  1
