# generated using pymatgen
data_MnAl2P2(HO)18
_symmetry_space_group_name_H-M   'P 1'
_cell_length_a   7.07345571
_cell_length_b   10.25515538
_cell_length_c   10.60728010
_cell_angle_alpha   107.89510453
_cell_angle_beta   90.14872810
_cell_angle_gamma   110.00184363
_symmetry_Int_Tables_number   1
_chemical_formula_structural   MnAl2P2(HO)18
_chemical_formula_sum   'Mn2 Al4 P4 H36 O36'
_cell_volume   683.04541328
_cell_formula_units_Z   2
loop_
 _symmetry_equiv_pos_site_id
 _symmetry_equiv_pos_as_xyz
  1  'x, y, z'
loop_
 _atom_site_type_symbol
 _atom_site_label
 _atom_site_symmetry_multiplicity
 _atom_site_fract_x
 _atom_site_fract_y
 _atom_site_fract_z
 _atom_site_occupancy
  Mn  Mn0  1  0.630262  0.269528  0.510457  1
  Mn  Mn1  1  0.369738  0.730472  0.489543  1
  Al  Al2  1  0.000000  0.000000  0.000000  1
  Al  Al3  1  0.500000  0.500000  0.000000  1
  Al  Al4  1  0.259118  0.748356  0.996265  1
  Al  Al5  1  0.740882  0.251644  0.003735  1
  P  P6  1  0.433269  0.092245  0.181456  1
  P  P7  1  0.865420  0.461093  0.827702  1
  P  P8  1  0.134580  0.538907  0.172298  1
  P  P9  1  0.566731  0.907755  0.818544  1
  H  H10  1  0.295396  0.035791  0.855146  1
  H  H11  1  0.104189  0.056315  0.784060  1
  H  H12  1  0.365088  0.049637  0.608528  1
  H  H13  1  0.812982  0.010158  0.664907  1
  H  H14  1  0.557701  0.149237  0.716296  1
  H  H15  1  0.347805  0.348299  0.744252  1
  H  H16  1  0.926559  0.178452  0.742021  1
  H  H17  1  0.222902  0.445493  0.828683  1
  H  H18  1  0.899161  0.126575  0.532983  1
  H  H19  1  0.172392  0.230903  0.260080  1
  H  H20  1  0.292179  0.329901  0.475895  1
  H  H21  1  0.080317  0.258722  0.022044  1
  H  H22  1  0.146383  0.385099  0.329920  1
  H  H23  1  0.938296  0.183345  0.404997  1
  H  H24  1  0.088117  0.530247  0.614029  1
  H  H25  1  0.402006  0.466660  0.600329  1
  H  H26  1  0.418260  0.272938  0.044258  1
  H  H27  1  0.270453  0.666545  0.707705  1
  H  H28  1  0.729547  0.333455  0.292295  1
  H  H29  1  0.581740  0.727062  0.955742  1
  H  H30  1  0.597994  0.533340  0.399671  1
  H  H31  1  0.911883  0.469753  0.385971  1
  H  H32  1  0.061704  0.816655  0.595003  1
  H  H33  1  0.853617  0.614901  0.670080  1
  H  H34  1  0.919683  0.741278  0.977956  1
  H  H35  1  0.707821  0.670099  0.524105  1
  H  H36  1  0.827608  0.769097  0.739920  1
  H  H37  1  0.100839  0.873425  0.467017  1
  H  H38  1  0.777098  0.554507  0.171317  1
  H  H39  1  0.073441  0.821548  0.257979  1
  H  H40  1  0.652195  0.651701  0.255748  1
  H  H41  1  0.442299  0.850763  0.283704  1
  H  H42  1  0.187018  0.989842  0.335093  1
  H  H43  1  0.634912  0.950363  0.391472  1
  H  H44  1  0.895811  0.943685  0.215940  1
  H  H45  1  0.704604  0.964209  0.144854  1
  O  O46  1  0.147636  0.015494  0.848191  1
  O  O47  1  0.566265  0.065901  0.883095  1
  O  O48  1  0.477785  0.146033  0.639081  1
  O  O49  1  0.945644  0.092633  0.675596  1
  O  O50  1  0.423219  0.124222  0.332323  1
  O  O51  1  0.308251  0.386609  0.833377  1
  O  O52  1  0.249650  0.114001  0.118936  1
  O  O53  1  0.139430  0.291642  0.343434  1
  O  O54  1  0.830920  0.135638  0.454626  1
  O  O55  1  0.825288  0.310063  0.847681  1
  O  O56  1  0.091414  0.560099  0.876206  1
  O  O57  1  0.387725  0.363690  0.560287  1
  O  O58  1  0.634561  0.200838  0.158087  1
  O  O59  1  0.728423  0.539402  0.905190  1
  O  O60  1  0.471766  0.673636  0.996979  1
  O  O61  1  0.832813  0.439478  0.676505  1
  O  O62  1  0.228828  0.593301  0.613632  1
  O  O63  1  0.047722  0.825001  0.992712  1
  O  O64  1  0.952278  0.174999  0.007288  1
  O  O65  1  0.771172  0.406699  0.386368  1
  O  O66  1  0.167187  0.560522  0.323495  1
  O  O67  1  0.528234  0.326364  0.003021  1
  O  O68  1  0.271577  0.460598  0.094810  1
  O  O69  1  0.365439  0.799162  0.841913  1
  O  O70  1  0.612275  0.636310  0.439713  1
  O  O71  1  0.908586  0.439901  0.123794  1
  O  O72  1  0.174712  0.689937  0.152319  1
  O  O73  1  0.169080  0.864362  0.545374  1
  O  O74  1  0.860570  0.708358  0.656566  1
  O  O75  1  0.750350  0.885999  0.881064  1
  O  O76  1  0.691749  0.613391  0.166623  1
  O  O77  1  0.576781  0.875778  0.667677  1
  O  O78  1  0.054356  0.907367  0.324404  1
  O  O79  1  0.522215  0.853967  0.360919  1
  O  O80  1  0.433735  0.934099  0.116905  1
  O  O81  1  0.852364  0.984506  0.151809  1
