# generated using pymatgen
data_PrP2(HO)7
_symmetry_space_group_name_H-M   'P 1'
_cell_length_a   6.75427155
_cell_length_b   7.22104665
_cell_length_c   16.95588928
_cell_angle_alpha   90.00000000
_cell_angle_beta   90.00000000
_cell_angle_gamma   90.00000000
_symmetry_Int_Tables_number   1
_chemical_formula_structural   PrP2(HO)7
_chemical_formula_sum   'Pr4 P8 H28 O28'
_cell_volume   826.98806096
_cell_formula_units_Z   4
loop_
 _symmetry_equiv_pos_site_id
 _symmetry_equiv_pos_as_xyz
  1  'x, y, z'
loop_
 _atom_site_type_symbol
 _atom_site_label
 _atom_site_symmetry_multiplicity
 _atom_site_fract_x
 _atom_site_fract_y
 _atom_site_fract_z
 _atom_site_occupancy
  Pr  Pr0  1  0.146800  0.338268  0.274323  1
  Pr  Pr1  1  0.353200  0.661732  0.774323  1
  Pr  Pr2  1  0.646800  0.161732  0.725677  1
  Pr  Pr3  1  0.853200  0.838268  0.225677  1
  P  P4  1  0.156489  0.108829  0.078482  1
  P  P5  1  0.343511  0.891171  0.578482  1
  P  P6  1  0.656489  0.391171  0.921518  1
  P  P7  1  0.843511  0.608829  0.421518  1
  P  P8  1  0.688956  0.336031  0.211738  1
  P  P9  1  0.811044  0.663969  0.711738  1
  P  P10  1  0.188956  0.163969  0.788262  1
  P  P11  1  0.311044  0.836031  0.288262  1
  H  H12  1  0.336163  0.067849  0.038990  1
  H  H13  1  0.163837  0.932151  0.538990  1
  H  H14  1  0.836163  0.432151  0.961010  1
  H  H15  1  0.663837  0.567849  0.461010  1
  H  H16  1  0.025149  0.159330  0.016770  1
  H  H17  1  0.474851  0.840670  0.516770  1
  H  H18  1  0.525149  0.340670  0.983230  1
  H  H19  1  0.974851  0.659330  0.483230  1
  H  H20  1  0.639615  0.303788  0.131805  1
  H  H21  1  0.860385  0.696212  0.631805  1
  H  H22  1  0.139615  0.196212  0.868195  1
  H  H23  1  0.360385  0.803788  0.368195  1
  H  H24  1  0.261493  0.342432  0.460457  1
  H  H25  1  0.238507  0.657568  0.960457  1
  H  H26  1  0.761493  0.157568  0.539543  1
  H  H27  1  0.738507  0.842432  0.039543  1
  H  H28  1  0.441396  0.250451  0.412354  1
  H  H29  1  0.058604  0.749549  0.912354  1
  H  H30  1  0.941396  0.249549  0.587646  1
  H  H31  1  0.558604  0.750451  0.087646  1
  H  H32  1  0.223504  0.485984  0.587600  1
  H  H33  1  0.276496  0.514016  0.087600  1
  H  H34  1  0.723504  0.014016  0.412400  1
  H  H35  1  0.776496  0.985984  0.912400  1
  H  H36  1  0.262786  0.271452  0.585079  1
  H  H37  1  0.237214  0.728548  0.085079  1
  H  H38  1  0.762786  0.228548  0.414921  1
  H  H39  1  0.737214  0.771452  0.914921  1
  O  O40  1  0.188337  0.277645  0.130771  1
  O  O41  1  0.311663  0.722355  0.630771  1
  O  O42  1  0.688337  0.222355  0.869229  1
  O  O43  1  0.811663  0.777645  0.369229  1
  O  O44  1  0.082381  0.928581  0.115396  1
  O  O45  1  0.417619  0.071419  0.615396  1
  O  O46  1  0.582381  0.571419  0.884604  1
  O  O47  1  0.917619  0.428581  0.384604  1
  O  O48  1  0.830082  0.505012  0.213102  1
  O  O49  1  0.669918  0.494988  0.713102  1
  O  O50  1  0.330082  0.994988  0.786898  1
  O  O51  1  0.169918  0.005012  0.286898  1
  O  O52  1  0.819308  0.170695  0.239264  1
  O  O53  1  0.680692  0.829305  0.739264  1
  O  O54  1  0.319308  0.329305  0.760736  1
  O  O55  1  0.180692  0.670695  0.260736  1
  O  O56  1  0.498540  0.359570  0.257676  1
  O  O57  1  0.001460  0.640430  0.757676  1
  O  O58  1  0.998540  0.140430  0.742324  1
  O  O59  1  0.501460  0.859570  0.242324  1
  O  O60  1  0.313745  0.316480  0.407001  1
  O  O61  1  0.186255  0.683520  0.907001  1
  O  O62  1  0.813745  0.183520  0.592999  1
  O  O63  1  0.686255  0.816480  0.092999  1
  O  O64  1  0.179166  0.370007  0.562166  1
  O  O65  1  0.320834  0.629993  0.062166  1
  O  O66  1  0.679166  0.129993  0.437834  1
  O  O67  1  0.820834  0.870007  0.937834  1
