# generated using pymatgen
data_LiCr2(PO4)2
_symmetry_space_group_name_H-M   'P 1'
_cell_length_a   6.24437527
_cell_length_b   6.36444681
_cell_length_c   9.53564509
_cell_angle_alpha   85.22572079
_cell_angle_beta   73.54280293
_cell_angle_gamma   80.71656065
_symmetry_Int_Tables_number   1
_chemical_formula_structural   LiCr2(PO4)2
_chemical_formula_sum   'Li2 Cr4 P4 O16'
_cell_volume   358.39768069
_cell_formula_units_Z   2
loop_
 _symmetry_equiv_pos_site_id
 _symmetry_equiv_pos_as_xyz
  1  'x, y, z'
loop_
 _atom_site_type_symbol
 _atom_site_label
 _atom_site_symmetry_multiplicity
 _atom_site_fract_x
 _atom_site_fract_y
 _atom_site_fract_z
 _atom_site_occupancy
  Li  Li0  1  0.327743  0.574366  0.672050  1
  Li  Li1  1  0.672257  0.425634  0.327950  1
  Cr  Cr2  1  0.067364  0.016732  0.715240  1
  Cr  Cr3  1  0.665285  0.807788  0.046699  1
  Cr  Cr4  1  0.334715  0.192212  0.953301  1
  Cr  Cr5  1  0.932636  0.983268  0.284760  1
  P  P6  1  0.190295  0.720905  0.986620  1
  P  P7  1  0.273513  0.824712  0.385792  1
  P  P8  1  0.726487  0.175288  0.614208  1
  P  P9  1  0.809705  0.279095  0.013380  1
  O  O10  1  0.261120  0.490518  0.022283  1
  O  O11  1  0.065823  0.722148  0.378626  1
  O  O12  1  0.220677  0.046951  0.306366  1
  O  O13  1  0.034717  0.187811  0.897642  1
  O  O14  1  0.367644  0.863875  0.992297  1
  O  O15  1  0.269789  0.845959  0.549225  1
  O  O16  1  0.152476  0.752146  0.831643  1
  O  O17  1  0.507570  0.706227  0.309743  1
  O  O18  1  0.492430  0.293773  0.690257  1
  O  O19  1  0.847524  0.247854  0.168357  1
  O  O20  1  0.730211  0.154041  0.450775  1
  O  O21  1  0.632356  0.136125  0.007703  1
  O  O22  1  0.965283  0.812189  0.102358  1
  O  O23  1  0.779323  0.953049  0.693634  1
  O  O24  1  0.934177  0.277852  0.621374  1
  O  O25  1  0.738880  0.509482  0.977717  1
