# generated using pymatgen
data_NaMnAsCO7
_symmetry_space_group_name_H-M   'P 1'
_cell_length_a   5.39854278
_cell_length_b   6.43960271
_cell_length_c   9.28753219
_cell_angle_alpha   90.00000000
_cell_angle_beta   92.93266388
_cell_angle_gamma   90.00000000
_symmetry_Int_Tables_number   1
_chemical_formula_structural   NaMnAsCO7
_chemical_formula_sum   'Na2 Mn2 As2 C2 O14'
_cell_volume   322.45328668
_cell_formula_units_Z   2
loop_
 _symmetry_equiv_pos_site_id
 _symmetry_equiv_pos_as_xyz
  1  'x, y, z'
loop_
 _atom_site_type_symbol
 _atom_site_label
 _atom_site_symmetry_multiplicity
 _atom_site_fract_x
 _atom_site_fract_y
 _atom_site_fract_z
 _atom_site_occupancy
  Na  Na0  1  0.765139  0.519499  0.225306  1
  Na  Na1  1  0.234861  0.019499  0.774694  1
  Mn  Mn2  1  0.212374  0.241896  0.337697  1
  Mn  Mn3  1  0.787626  0.741896  0.662303  1
  As  As4  1  0.280479  0.747818  0.435718  1
  As  As5  1  0.719521  0.247818  0.564282  1
  C  C6  1  0.275757  0.253775  0.081187  1
  C  C7  1  0.724243  0.753775  0.918813  1
  O  O8  1  0.691211  0.751644  0.048772  1
  O  O9  1  0.057237  0.251468  0.139140  1
  O  O10  1  0.455951  0.256417  0.184179  1
  O  O11  1  0.208130  0.946902  0.318250  1
  O  O12  1  0.197853  0.544108  0.323668  1
  O  O13  1  0.873004  0.256055  0.408327  1
  O  O14  1  0.596010  0.732567  0.478200  1
  O  O15  1  0.403990  0.232567  0.521800  1
  O  O16  1  0.126996  0.756055  0.591673  1
  O  O17  1  0.802147  0.044108  0.676332  1
  O  O18  1  0.791870  0.446902  0.681750  1
  O  O19  1  0.544049  0.756417  0.815821  1
  O  O20  1  0.942763  0.751468  0.860860  1
  O  O21  1  0.308789  0.251644  0.951228  1
