# generated using pymatgen
data_Al2Si2H4O9
_symmetry_space_group_name_H-M   'P 1'
_cell_length_a   5.22580720
_cell_length_b   5.22580720
_cell_length_c   14.58991389
_cell_angle_alpha   86.80074622
_cell_angle_beta   93.19925378
_cell_angle_gamma   59.86540594
_symmetry_Int_Tables_number   1
_chemical_formula_structural   Al2Si2H4O9
_chemical_formula_sum   'Al4 Si4 H8 O18'
_cell_volume   342.42545147
_cell_formula_units_Z   2
loop_
 _symmetry_equiv_pos_site_id
 _symmetry_equiv_pos_as_xyz
  1  'x, y, z'
loop_
 _atom_site_type_symbol
 _atom_site_label
 _atom_site_symmetry_multiplicity
 _atom_site_fract_x
 _atom_site_fract_y
 _atom_site_fract_z
 _atom_site_occupancy
  Al  Al0  1  0.168955  0.340085  0.730824  1
  Al  Al1  1  0.659915  0.831045  0.230824  1
  Al  Al2  1  0.839094  0.998933  0.729145  1
  Al  Al3  1  0.001067  0.160906  0.229145  1
  Si  Si4  1  0.414530  0.387538  0.539358  1
  Si  Si5  1  0.612462  0.585470  0.039358  1
  Si  Si6  1  0.072644  0.072663  0.538693  1
  Si  Si7  1  0.927337  0.927356  0.038693  1
  H  H8  1  0.676017  0.690271  0.653957  1
  H  H9  1  0.309729  0.323983  0.153957  1
  H  H10  1  0.555013  0.962787  0.858302  1
  H  H11  1  0.037213  0.444987  0.358302  1
  H  H12  1  0.256175  0.639055  0.851774  1
  H  H13  1  0.360945  0.743825  0.351774  1
  H  H14  1  0.864727  0.301185  0.856354  1
  H  H15  1  0.698815  0.135273  0.356355  1
  O  O16  1  0.197945  0.277659  0.491925  1
  O  O17  1  0.722341  0.802055  0.991925  1
  O  O18  1  0.729544  0.214344  0.491642  1
  O  O19  1  0.785656  0.270456  0.991642  1
  O  O20  1  0.271575  0.740164  0.504950  1
  O  O21  1  0.259836  0.728425  0.004950  1
  O  O22  1  0.470234  0.311248  0.650264  1
  O  O23  1  0.688752  0.529766  0.150264  1
  O  O24  1  0.087401  0.077026  0.649825  1
  O  O25  1  0.922974  0.912599  0.149825  1
  O  O26  1  0.862399  0.690928  0.656064  1
  O  O27  1  0.309072  0.137601  0.156064  1
  O  O28  1  0.523747  0.037937  0.793728  1
  O  O29  1  0.962063  0.476253  0.293728  1
  O  O30  1  0.138374  0.649697  0.796592  1
  O  O31  1  0.350303  0.861626  0.296592  1
  O  O32  1  0.911682  0.259334  0.793472  1
  O  O33  1  0.740666  0.088318  0.293472  1
