# generated using pymatgen
data_Li8Mn7Fe(BO3)8
_symmetry_space_group_name_H-M   'P 1'
_cell_length_a   5.26278892
_cell_length_b   9.11645462
_cell_length_c   11.62481487
_cell_angle_alpha   111.56688972
_cell_angle_beta   102.23244608
_cell_angle_gamma   89.79162804
_symmetry_Int_Tables_number   1
_chemical_formula_structural   Li8Mn7Fe(BO3)8
_chemical_formula_sum   'Li8 Mn7 Fe1 B8 O24'
_cell_volume   505.21703803
_cell_formula_units_Z   1
loop_
 _symmetry_equiv_pos_site_id
 _symmetry_equiv_pos_as_xyz
  1  'x, y, z'
loop_
 _atom_site_type_symbol
 _atom_site_label
 _atom_site_symmetry_multiplicity
 _atom_site_fract_x
 _atom_site_fract_y
 _atom_site_fract_z
 _atom_site_occupancy
  Li  Li0  1  0.031123  0.038968  0.416723  1
  Li  Li1  1  0.295135  0.284495  0.917142  1
  Li  Li2  1  0.481455  0.507621  0.667383  1
  Li  Li3  1  0.272448  0.244498  0.167999  1
  Li  Li4  1  0.529592  0.540729  0.417865  1
  Li  Li5  1  0.795261  0.784346  0.917943  1
  Li  Li6  1  0.980851  0.008915  0.668838  1
  Li  Li7  1  0.771822  0.744578  0.168363  1
  Mn  Mn8  1  0.023397  0.356541  0.383061  1
  Mn  Mn9  1  0.272746  0.940367  0.883640  1
  Mn  Mn10  1  0.244653  0.565309  0.133204  1
  Mn  Mn11  1  0.523758  0.858506  0.386233  1
  Mn  Mn12  1  0.770583  0.437212  0.881985  1
  Mn  Mn13  1  0.744691  0.065138  0.133240  1
  Mn  Mn14  1  0.975367  0.655777  0.633450  1
  Fe  Fe15  1  0.471389  0.157317  0.632697  1
  B  B16  1  0.024095  0.686047  0.375977  1
  B  B17  1  0.265175  0.604391  0.875049  1
  B  B18  1  0.236553  0.892034  0.125825  1
  B  B19  1  0.470203  0.816598  0.626793  1
  B  B20  1  0.524722  0.186797  0.376795  1
  B  B21  1  0.764842  0.104246  0.874544  1
  B  B22  1  0.736279  0.391933  0.125645  1
  B  B23  1  0.973384  0.311462  0.624943  1
  O  O24  1  0.019084  0.109304  0.860655  1
  O  O25  1  0.097432  0.711646  0.845123  1
  O  O26  1  0.173810  0.493969  0.917005  1
  O  O27  1  0.081849  0.169493  0.612195  1
  O  O28  1  0.099600  0.424861  0.596579  1
  O  O29  1  0.237154  0.849702  0.667076  1
  O  O30  1  0.268669  0.655367  0.345639  1
  O  O31  1  0.519299  0.607903  0.859998  1
  O  O32  1  0.595761  0.210230  0.843663  1
  O  O33  1  0.404059  0.086823  0.419036  1
  O  O34  1  0.404479  0.315366  0.361167  1
  O  O35  1  0.675874  0.994121  0.917634  1
  O  O36  1  0.337158  0.012478  0.095932  1
  O  O37  1  0.571945  0.671505  0.610943  1
  O  O38  1  0.599100  0.928919  0.598492  1
  O  O39  1  0.404957  0.793960  0.167075  1
  O  O40  1  0.468856  0.370162  0.110585  1
  O  O41  1  0.737597  0.341457  0.663466  1
  O  O42  1  0.769559  0.155211  0.346610  1
  O  O43  1  0.903867  0.585349  0.418088  1
  O  O44  1  0.902741  0.814755  0.361344  1
  O  O45  1  0.836928  0.512236  0.095682  1
  O  O46  1  0.904879  0.293949  0.167136  1
  O  O47  1  0.969018  0.870608  0.111140  1
