# generated using pymatgen
data_Li4MnFe3(PO4)4
_symmetry_space_group_name_H-M   'P 1'
_cell_length_a   7.73553615
_cell_length_b   10.51487508
_cell_length_c   7.74525690
_cell_angle_alpha   90.00000000
_cell_angle_beta   104.08871271
_cell_angle_gamma   90.00000000
_symmetry_Int_Tables_number   1
_chemical_formula_structural   Li4MnFe3(PO4)4
_chemical_formula_sum   'Li8 Mn2 Fe6 P8 O32'
_cell_volume   611.03526293
_cell_formula_units_Z   2
loop_
 _symmetry_equiv_pos_site_id
 _symmetry_equiv_pos_as_xyz
  1  'x, y, z'
loop_
 _atom_site_type_symbol
 _atom_site_label
 _atom_site_symmetry_multiplicity
 _atom_site_fract_x
 _atom_site_fract_y
 _atom_site_fract_z
 _atom_site_occupancy
  Li  Li0  1  0.750054  0.751041  0.750464  1
  Li  Li1  1  0.250128  0.750073  0.249583  1
  Li  Li2  1  0.000024  0.750476  0.500266  1
  Li  Li3  1  0.500040  0.750595  0.999939  1
  Li  Li4  1  0.750128  0.249927  0.249583  1
  Li  Li5  1  0.500024  0.249524  0.500266  1
  Li  Li6  1  0.250054  0.248959  0.750464  1
  Li  Li7  1  0.000040  0.249405  0.999939  1
  Mn  Mn8  1  0.864683  0.467359  0.614300  1
  Mn  Mn9  1  0.364683  0.532641  0.614300  1
  Fe  Fe10  1  0.363142  0.467199  0.113277  1
  Fe  Fe11  1  0.863142  0.532801  0.113277  1
  Fe  Fe12  1  0.637529  0.967481  0.387128  1
  Fe  Fe13  1  0.137644  0.967527  0.888074  1
  Fe  Fe14  1  0.137529  0.032519  0.387128  1
  Fe  Fe15  1  0.637644  0.032473  0.888074  1
  P  P16  1  0.583608  0.343908  0.835507  1
  P  P17  1  0.083130  0.344594  0.331189  1
  P  P18  1  0.583130  0.655406  0.331189  1
  P  P19  1  0.083608  0.656092  0.835507  1
  P  P20  1  0.916236  0.845958  0.166336  1
  P  P21  1  0.416583  0.847012  0.666506  1
  P  P22  1  0.416236  0.154042  0.166336  1
  P  P23  1  0.916583  0.152988  0.666506  1
  O  O24  1  0.978921  0.289862  0.728670  1
  O  O25  1  0.477965  0.291198  0.228113  1
  O  O26  1  0.746012  0.348150  0.995013  1
  O  O27  1  0.242749  0.348194  0.493649  1
  O  O28  1  0.913589  0.414467  0.362640  1
  O  O29  1  0.615132  0.413315  0.665924  1
  O  O30  1  0.119307  0.414626  0.163628  1
  O  O31  1  0.415354  0.413486  0.871599  1
  O  O32  1  0.619307  0.585374  0.163628  1
  O  O33  1  0.915354  0.586514  0.871599  1
  O  O34  1  0.115132  0.586685  0.665924  1
  O  O35  1  0.413589  0.585533  0.362640  1
  O  O36  1  0.742749  0.651806  0.493649  1
  O  O37  1  0.246012  0.651850  0.995013  1
  O  O38  1  0.977965  0.708802  0.228113  1
  O  O39  1  0.478921  0.710138  0.728670  1
  O  O40  1  0.522295  0.793023  0.270570  1
  O  O41  1  0.021850  0.793305  0.773627  1
  O  O42  1  0.255291  0.849175  0.505314  1
  O  O43  1  0.755049  0.849310  0.005197  1
  O  O44  1  0.881912  0.915897  0.334970  1
  O  O45  1  0.585006  0.916763  0.631583  1
  O  O46  1  0.085037  0.915843  0.132031  1
  O  O47  1  0.381730  0.916649  0.834905  1
  O  O48  1  0.381912  0.084103  0.334970  1
  O  O49  1  0.085006  0.083237  0.631583  1
  O  O50  1  0.585037  0.084157  0.132031  1
  O  O51  1  0.881730  0.083351  0.834905  1
  O  O52  1  0.255049  0.150690  0.005197  1
  O  O53  1  0.755291  0.150825  0.505314  1
  O  O54  1  0.022295  0.206977  0.270570  1
  O  O55  1  0.521850  0.206695  0.773627  1
