# generated using pymatgen
data_Li3TiV3O8
_symmetry_space_group_name_H-M   'P 1'
_cell_length_a   6.49372722
_cell_length_b   6.49372722
_cell_length_c   6.65762971
_cell_angle_alpha   73.47109802
_cell_angle_beta   106.52890198
_cell_angle_gamma   143.34014183
_symmetry_Int_Tables_number   1
_chemical_formula_structural   Li3TiV3O8
_chemical_formula_sum   'Li3 Ti1 V3 O8'
_cell_volume   159.91562227
_cell_formula_units_Z   1
loop_
 _symmetry_equiv_pos_site_id
 _symmetry_equiv_pos_as_xyz
  1  'x, y, z'
loop_
 _atom_site_type_symbol
 _atom_site_label
 _atom_site_symmetry_multiplicity
 _atom_site_fract_x
 _atom_site_fract_y
 _atom_site_fract_z
 _atom_site_occupancy
  Li  Li0  1  0.061884  0.938116  0.361162  1
  Li  Li1  1  0.826707  0.173293  0.995983  1
  Li  Li2  1  0.941459  0.058541  0.642859  1
  Ti  Ti3  1  0.704345  0.295655  0.285076  1
  V  V4  1  0.610127  0.389873  0.689690  1
  V  V5  1  0.290830  0.709170  0.700556  1
  V  V6  1  0.391219  0.608781  0.301990  1
  O  O7  1  0.662040  0.337960  0.012049  1
  O  O8  1  0.566212  0.433788  0.352889  1
  O  O9  1  0.119031  0.880969  0.671382  1
  O  O10  1  0.776008  0.223992  0.673588  1
  O  O11  1  0.227381  0.772619  0.348186  1
  O  O12  1  0.879737  0.120263  0.316820  1
  O  O13  1  0.441862  0.558138  0.629761  1
  O  O14  1  0.351796  0.648204  0.999809  1
