# generated using pymatgen
data_Na11Bi5O16
_symmetry_space_group_name_H-M   'P 1'
_cell_length_a   9.60702578
_cell_length_b   9.60702578
_cell_length_c   9.60702578
_cell_angle_alpha   90.00000000
_cell_angle_beta   90.00000000
_cell_angle_gamma   90.00000000
_symmetry_Int_Tables_number   1
_chemical_formula_structural   Na11Bi5O16
_chemical_formula_sum   'Na22 Bi10 O32'
_cell_volume   886.67990961
_cell_formula_units_Z   2
loop_
 _symmetry_equiv_pos_site_id
 _symmetry_equiv_pos_as_xyz
  1  'x, y, z'
loop_
 _atom_site_type_symbol
 _atom_site_label
 _atom_site_symmetry_multiplicity
 _atom_site_fract_x
 _atom_site_fract_y
 _atom_site_fract_z
 _atom_site_occupancy
  Na  Na0  1  0.000000  0.000000  0.239471  1
  Na  Na1  1  0.000000  0.239471  0.000000  1
  Na  Na2  1  0.000000  0.000000  0.760529  1
  Na  Na3  1  0.000000  0.760529  0.000000  1
  Na  Na4  1  0.000000  0.500000  0.250000  1
  Na  Na5  1  0.000000  0.500000  0.750000  1
  Na  Na6  1  0.250000  0.250000  0.750000  1
  Na  Na7  1  0.250000  0.750000  0.250000  1
  Na  Na8  1  0.239471  0.000000  0.000000  1
  Na  Na9  1  0.250000  0.000000  0.500000  1
  Na  Na10  1  0.260529  0.500000  0.500000  1
  Na  Na11  1  0.500000  0.500000  0.739471  1
  Na  Na12  1  0.500000  0.739471  0.500000  1
  Na  Na13  1  0.500000  0.260529  0.500000  1
  Na  Na14  1  0.500000  0.500000  0.260529  1
  Na  Na15  1  0.500000  0.750000  0.000000  1
  Na  Na16  1  0.500000  0.250000  0.000000  1
  Na  Na17  1  0.760529  0.000000  0.000000  1
  Na  Na18  1  0.750000  0.000000  0.500000  1
  Na  Na19  1  0.750000  0.250000  0.250000  1
  Na  Na20  1  0.739471  0.500000  0.500000  1
  Na  Na21  1  0.750000  0.750000  0.750000  1
  Bi  Bi22  1  0.000000  0.250000  0.500000  1
  Bi  Bi23  1  0.000000  0.750000  0.500000  1
  Bi  Bi24  1  0.250000  0.250000  0.250000  1
  Bi  Bi25  1  0.250000  0.750000  0.750000  1
  Bi  Bi26  1  0.250000  0.500000  0.000000  1
  Bi  Bi27  1  0.500000  0.000000  0.750000  1
  Bi  Bi28  1  0.500000  0.000000  0.250000  1
  Bi  Bi29  1  0.750000  0.250000  0.750000  1
  Bi  Bi30  1  0.750000  0.500000  0.000000  1
  Bi  Bi31  1  0.750000  0.750000  0.250000  1
  O  O32  1  0.000000  0.000000  0.000000  1
  O  O33  1  0.021905  0.248223  0.259599  1
  O  O34  1  0.000000  0.000000  0.500000  1
  O  O35  1  0.000000  0.500000  0.000000  1
  O  O36  1  0.978095  0.248223  0.740401  1
  O  O37  1  0.000000  0.500000  0.500000  1
  O  O38  1  0.978095  0.751777  0.259599  1
  O  O39  1  0.021905  0.751777  0.740401  1
  O  O40  1  0.259599  0.021905  0.248223  1
  O  O41  1  0.248223  0.259599  0.021905  1
  O  O42  1  0.259599  0.978095  0.751777  1
  O  O43  1  0.240401  0.251777  0.478095  1
  O  O44  1  0.251777  0.478095  0.240401  1
  O  O45  1  0.248223  0.740401  0.978095  1
  O  O46  1  0.251777  0.521905  0.759599  1
  O  O47  1  0.240401  0.748223  0.521905  1
  O  O48  1  0.500000  0.500000  0.500000  1
  O  O49  1  0.478095  0.759599  0.748223  1
  O  O50  1  0.500000  0.000000  0.500000  1
  O  O51  1  0.521905  0.240401  0.748223  1
  O  O52  1  0.500000  0.500000  0.000000  1
  O  O53  1  0.521905  0.759599  0.251777  1
  O  O54  1  0.500000  0.000000  0.000000  1
  O  O55  1  0.478095  0.240401  0.251777  1
  O  O56  1  0.740401  0.978095  0.248223  1
  O  O57  1  0.740401  0.021905  0.751777  1
  O  O58  1  0.751777  0.259599  0.978095  1
  O  O59  1  0.759599  0.251777  0.521905  1
  O  O60  1  0.748223  0.478095  0.759599  1
  O  O61  1  0.748223  0.521905  0.240401  1
  O  O62  1  0.751777  0.740401  0.021905  1
  O  O63  1  0.759599  0.748223  0.478095  1
