# generated using pymatgen
data_Li2Cr4Si4O13
_symmetry_space_group_name_H-M   'P 1'
_cell_length_a   6.93987594
_cell_length_b   7.87320959
_cell_length_c   10.34148923
_cell_angle_alpha   108.07467422
_cell_angle_beta   88.28101592
_cell_angle_gamma   99.79968581
_symmetry_Int_Tables_number   1
_chemical_formula_structural   Li2Cr4Si4O13
_chemical_formula_sum   'Li4 Cr8 Si8 O26'
_cell_volume   529.17130274
_cell_formula_units_Z   2
loop_
 _symmetry_equiv_pos_site_id
 _symmetry_equiv_pos_as_xyz
  1  'x, y, z'
loop_
 _atom_site_type_symbol
 _atom_site_label
 _atom_site_symmetry_multiplicity
 _atom_site_fract_x
 _atom_site_fract_y
 _atom_site_fract_z
 _atom_site_occupancy
  Li  Li0  1  0.778810  0.598024  0.111429  1
  Li  Li1  1  0.247519  0.410044  0.412172  1
  Li  Li2  1  0.752481  0.589956  0.587828  1
  Li  Li3  1  0.221190  0.401976  0.888571  1
  Cr  Cr4  1  0.082363  0.813428  0.997353  1
  Cr  Cr5  1  0.566561  0.811463  0.007126  1
  Cr  Cr6  1  0.571695  0.788634  0.379800  1
  Cr  Cr7  1  0.068699  0.784906  0.376398  1
  Cr  Cr8  1  0.931301  0.215094  0.623602  1
  Cr  Cr9  1  0.428305  0.211366  0.620200  1
  Cr  Cr10  1  0.433439  0.188537  0.992874  1
  Cr  Cr11  1  0.917637  0.186572  0.002647  1
  Si  Si12  1  0.276811  0.574669  0.166955  1
  Si  Si13  1  0.719375  0.392029  0.297563  1
  Si  Si14  1  0.376579  0.091525  0.276956  1
  Si  Si15  1  0.927780  0.084096  0.281234  1
  Si  Si16  1  0.072220  0.915904  0.718766  1
  Si  Si17  1  0.623421  0.908475  0.723044  1
  Si  Si18  1  0.280625  0.607971  0.702437  1
  Si  Si19  1  0.723189  0.425331  0.833045  1
  O  O20  1  0.885550  0.002542  0.117748  1
  O  O21  1  0.230496  0.361518  0.073812  1
  O  O22  1  0.499963  0.667686  0.141329  1
  O  O23  1  0.096727  0.681707  0.145551  1
  O  O24  1  0.741979  0.356636  0.135563  1
  O  O25  1  0.401911  0.010527  0.114065  1
  O  O26  1  0.855632  0.946049  0.369550  1
  O  O27  1  0.399549  0.971825  0.374521  1
  O  O28  1  0.273398  0.608873  0.336539  1
  O  O29  1  0.762784  0.605254  0.390587  1
  O  O30  1  0.161571  0.149789  0.309850  1
  O  O31  1  0.500507  0.302784  0.336925  1
  O  O32  1  0.863295  0.283447  0.355738  1
  O  O33  1  0.136705  0.716553  0.644262  1
  O  O34  1  0.499493  0.697216  0.663075  1
  O  O35  1  0.838429  0.850211  0.690150  1
  O  O36  1  0.237216  0.394746  0.609413  1
  O  O37  1  0.726602  0.391127  0.663461  1
  O  O38  1  0.600451  0.028175  0.625479  1
  O  O39  1  0.144368  0.053951  0.630450  1
  O  O40  1  0.598089  0.989473  0.885935  1
  O  O41  1  0.258021  0.643364  0.864437  1
  O  O42  1  0.903273  0.318293  0.854449  1
  O  O43  1  0.500037  0.332314  0.858671  1
  O  O44  1  0.769504  0.638482  0.926188  1
  O  O45  1  0.114450  0.997458  0.882252  1
