# generated using pymatgen
data_NaNb2O4
_symmetry_space_group_name_H-M   'P 1'
_cell_length_a   5.15758435
_cell_length_b   5.96354663
_cell_length_c   12.15542781
_cell_angle_alpha   90.00000000
_cell_angle_beta   90.00000000
_cell_angle_gamma   90.00000000
_symmetry_Int_Tables_number   1
_chemical_formula_structural   NaNb2O4
_chemical_formula_sum   'Na4 Nb8 O16'
_cell_volume   373.87050729
_cell_formula_units_Z   4
loop_
 _symmetry_equiv_pos_site_id
 _symmetry_equiv_pos_as_xyz
  1  'x, y, z'
loop_
 _atom_site_type_symbol
 _atom_site_label
 _atom_site_symmetry_multiplicity
 _atom_site_fract_x
 _atom_site_fract_y
 _atom_site_fract_z
 _atom_site_occupancy
  Na  Na0  1  0.690313  0.250000  0.003577  1
  Na  Na1  1  0.690313  0.750000  0.496423  1
  Na  Na2  1  0.309687  0.250000  0.503577  1
  Na  Na3  1  0.309687  0.750000  0.996423  1
  Nb  Nb4  1  0.844323  0.500000  0.250000  1
  Nb  Nb5  1  0.844323  0.000000  0.250000  1
  Nb  Nb6  1  0.658738  0.250000  0.746952  1
  Nb  Nb7  1  0.658738  0.750000  0.753048  1
  Nb  Nb8  1  0.341262  0.250000  0.246952  1
  Nb  Nb9  1  0.341262  0.750000  0.253048  1
  Nb  Nb10  1  0.155677  0.500000  0.750000  1
  Nb  Nb11  1  0.155677  0.000000  0.750000  1
  O  O12  1  0.996071  0.250000  0.646758  1
  O  O13  1  0.996071  0.750000  0.853242  1
  O  O14  1  0.986998  0.250000  0.850703  1
  O  O15  1  0.986998  0.750000  0.649297  1
  O  O16  1  0.508718  0.997278  0.146470  1
  O  O17  1  0.508718  0.502722  0.146470  1
  O  O18  1  0.508718  0.497278  0.353530  1
  O  O19  1  0.508718  0.002722  0.353530  1
  O  O20  1  0.491282  0.997278  0.646470  1
  O  O21  1  0.491282  0.497278  0.853530  1
  O  O22  1  0.491282  0.002722  0.853530  1
  O  O23  1  0.491282  0.502722  0.646470  1
  O  O24  1  0.013002  0.750000  0.149297  1
  O  O25  1  0.013002  0.250000  0.350703  1
  O  O26  1  0.003929  0.250000  0.146758  1
  O  O27  1  0.003929  0.750000  0.353242  1
