# generated using pymatgen
data_Li2VCr3O8
_symmetry_space_group_name_H-M   'P 1'
_cell_length_a   5.24035939
_cell_length_b   7.81963905
_cell_length_c   7.84151263
_cell_angle_alpha   94.63497961
_cell_angle_beta   95.13423915
_cell_angle_gamma   109.27245236
_symmetry_Int_Tables_number   1
_chemical_formula_structural   Li2VCr3O8
_chemical_formula_sum   'Li4 V2 Cr6 O16'
_cell_volume   300.01512667
_cell_formula_units_Z   2
loop_
 _symmetry_equiv_pos_site_id
 _symmetry_equiv_pos_as_xyz
  1  'x, y, z'
loop_
 _atom_site_type_symbol
 _atom_site_label
 _atom_site_symmetry_multiplicity
 _atom_site_fract_x
 _atom_site_fract_y
 _atom_site_fract_z
 _atom_site_occupancy
  Li  Li0  1  0.012221  0.005830  0.993979  1
  Li  Li1  1  0.252049  0.235152  0.747872  1
  Li  Li2  1  0.510032  0.510205  0.514447  1
  Li  Li3  1  0.759921  0.761024  0.261381  1
  V  V4  1  0.940796  0.424196  0.312426  1
  V  V5  1  0.203018  0.682494  0.055532  1
  Cr  Cr6  1  0.792704  0.316929  0.935729  1
  Cr  Cr7  1  0.698728  0.179788  0.563803  1
  Cr  Cr8  1  0.543587  0.063923  0.188328  1
  Cr  Cr9  1  0.048444  0.568737  0.684323  1
  Cr  Cr10  1  0.452584  0.933496  0.809353  1
  Cr  Cr11  1  0.299993  0.816044  0.436675  1
  O  O12  1  0.427079  0.144185  0.965203  1
  O  O13  1  0.331309  0.030062  0.605096  1
  O  O14  1  0.677869  0.394629  0.714870  1
  O  O15  1  0.590492  0.291056  0.350050  1
  O  O16  1  0.074631  0.775395  0.865929  1
  O  O17  1  0.916154  0.635093  0.456777  1
  O  O18  1  0.842255  0.536671  0.113832  1
  O  O19  1  0.828559  0.107213  0.787946  1
  O  O20  1  0.166984  0.887453  0.204778  1
  O  O21  1  0.178143  0.483225  0.905927  1
  O  O22  1  0.078073  0.361542  0.519117  1
  O  O23  1  0.927250  0.231092  0.156440  1
  O  O24  1  0.415743  0.718383  0.642883  1
  O  O25  1  0.309154  0.597299  0.273951  1
  O  O26  1  0.665748  0.968647  0.392712  1
  O  O27  1  0.556476  0.840235  0.040642  1
