# generated using pymatgen
data_Li2MnVO4
_symmetry_space_group_name_H-M   'P 1'
_cell_length_a   5.28094164
_cell_length_b   2.91249534
_cell_length_c   5.28941554
_cell_angle_alpha   90.00000000
_cell_angle_beta   112.32099556
_cell_angle_gamma   90.00000000
_symmetry_Int_Tables_number   1
_chemical_formula_structural   Li2MnVO4
_chemical_formula_sum   'Li2 Mn1 V1 O4'
_cell_volume   75.25912709
_cell_formula_units_Z   1
loop_
 _symmetry_equiv_pos_site_id
 _symmetry_equiv_pos_as_xyz
  1  'x, y, z'
loop_
 _atom_site_type_symbol
 _atom_site_label
 _atom_site_symmetry_multiplicity
 _atom_site_fract_x
 _atom_site_fract_y
 _atom_site_fract_z
 _atom_site_occupancy
  Li  Li0  1  0.000000  0.000000  0.500000  1
  Li  Li1  1  0.000000  0.500000  0.000000  1
  Mn  Mn2  1  0.500000  0.500000  0.500000  1
  V  V3  1  0.500000  0.000000  0.000000  1
  O  O4  1  0.717954  0.000000  0.735546  1
  O  O5  1  0.742727  0.500000  0.230645  1
  O  O6  1  0.282046  0.000000  0.264454  1
  O  O7  1  0.257273  0.500000  0.769355  1
