# generated using pymatgen
data_Lu2P4O13
_symmetry_space_group_name_H-M   'P 1'
_cell_length_a   8.74396286
_cell_length_b   9.49702354
_cell_length_c   13.83405622
_cell_angle_alpha   90.00000000
_cell_angle_beta   106.11747357
_cell_angle_gamma   90.00000000
_symmetry_Int_Tables_number   1
_chemical_formula_structural   Lu2P4O13
_chemical_formula_sum   'Lu8 P16 O52'
_cell_volume   1103.64824149
_cell_formula_units_Z   4
loop_
 _symmetry_equiv_pos_site_id
 _symmetry_equiv_pos_as_xyz
  1  'x, y, z'
loop_
 _atom_site_type_symbol
 _atom_site_label
 _atom_site_symmetry_multiplicity
 _atom_site_fract_x
 _atom_site_fract_y
 _atom_site_fract_z
 _atom_site_occupancy
  Lu  Lu0  1  0.972071  0.996600  0.779096  1
  Lu  Lu1  1  0.972071  0.503400  0.279096  1
  Lu  Lu2  1  0.553582  0.001274  0.762401  1
  Lu  Lu3  1  0.446418  0.501274  0.737599  1
  Lu  Lu4  1  0.553582  0.498726  0.262401  1
  Lu  Lu5  1  0.446418  0.998726  0.237599  1
  Lu  Lu6  1  0.027929  0.496600  0.720904  1
  Lu  Lu7  1  0.027929  0.003400  0.220904  1
  P  P8  1  0.855685  0.760302  0.563751  1
  P  P9  1  0.712549  0.269804  0.654301  1
  P  P10  1  0.782835  0.704648  0.842417  1
  P  P11  1  0.855685  0.739698  0.063751  1
  P  P12  1  0.504091  0.750178  0.560891  1
  P  P13  1  0.712549  0.230196  0.154301  1
  P  P14  1  0.782835  0.795352  0.342417  1
  P  P15  1  0.495909  0.250178  0.939109  1
  P  P16  1  0.504091  0.749822  0.060891  1
  P  P17  1  0.217165  0.204648  0.657583  1
  P  P18  1  0.287451  0.769804  0.845699  1
  P  P19  1  0.495909  0.249822  0.439109  1
  P  P20  1  0.144315  0.260302  0.936249  1
  P  P21  1  0.217165  0.295352  0.157583  1
  P  P22  1  0.287451  0.730196  0.345699  1
  P  P23  1  0.144315  0.239698  0.436249  1
  O  O24  1  0.961159  0.632184  0.588441  1
  O  O25  1  0.889770  0.879228  0.638312  1
  O  O26  1  0.862959  0.337240  0.641281  1
  O  O27  1  0.880930  0.628119  0.784175  1
  O  O28  1  0.961159  0.867816  0.088441  1
  O  O29  1  0.871537  0.675358  0.960000  1
  O  O30  1  0.672114  0.705040  0.539432  1
  O  O31  1  0.748368  0.134484  0.720969  1
  O  O32  1  0.780041  0.867960  0.826715  1
  O  O33  1  0.889770  0.620772  0.138312  1
  O  O34  1  0.607861  0.206371  0.546953  1
  O  O35  1  0.862959  0.162760  0.141281  1
  O  O36  1  0.880930  0.871881  0.284175  1
  O  O37  1  0.609673  0.373123  0.691397  1
  O  O38  1  0.530398  0.880856  0.624569  1
  O  O39  1  0.615260  0.647419  0.823763  1
  O  O40  1  0.871537  0.824642  0.460000  1
  O  O41  1  0.672114  0.794960  0.039432  1
  O  O42  1  0.748368  0.365516  0.220969  1
  O  O43  1  0.780041  0.632040  0.326715  1
  O  O44  1  0.564100  0.123684  0.899986  1
  O  O45  1  0.607861  0.293629  0.046953  1
  O  O46  1  0.435900  0.623684  0.600014  1
  O  O47  1  0.384740  0.147419  0.676237  1
  O  O48  1  0.469602  0.380856  0.875431  1
  O  O49  1  0.609673  0.126877  0.191397  1
  O  O50  1  0.390327  0.873123  0.808603  1
  O  O51  1  0.530398  0.619144  0.124569  1
  O  O52  1  0.615260  0.852581  0.323763  1
  O  O53  1  0.564100  0.376316  0.399986  1
  O  O54  1  0.392139  0.706371  0.953047  1
  O  O55  1  0.435900  0.876316  0.100014  1
  O  O56  1  0.219959  0.367960  0.673285  1
  O  O57  1  0.251632  0.634484  0.779031  1
  O  O58  1  0.327886  0.205040  0.960568  1
  O  O59  1  0.128463  0.175358  0.540000  1
  O  O60  1  0.384740  0.352581  0.176237  1
  O  O61  1  0.469602  0.119144  0.375431  1
  O  O62  1  0.390327  0.626877  0.308603  1
  O  O63  1  0.119070  0.128119  0.715825  1
  O  O64  1  0.137041  0.837240  0.858719  1
  O  O65  1  0.392139  0.793629  0.453047  1
  O  O66  1  0.110230  0.379228  0.861688  1
  O  O67  1  0.219959  0.132040  0.173285  1
  O  O68  1  0.251632  0.865516  0.279031  1
  O  O69  1  0.327886  0.294960  0.460568  1
  O  O70  1  0.128463  0.324642  0.040000  1
  O  O71  1  0.038841  0.132184  0.911559  1
  O  O72  1  0.119070  0.371881  0.215825  1
  O  O73  1  0.137041  0.662760  0.358719  1
  O  O74  1  0.110230  0.120772  0.361688  1
  O  O75  1  0.038841  0.367816  0.411559  1
