# generated using pymatgen
data_Li5Fe8(BO3)8
_symmetry_space_group_name_H-M   'P 1'
_cell_length_a   5.25743663
_cell_length_b   9.08977152
_cell_length_c   11.35071683
_cell_angle_alpha   113.16161357
_cell_angle_beta   103.34945025
_cell_angle_gamma   90.16822359
_symmetry_Int_Tables_number   1
_chemical_formula_structural   Li5Fe8(BO3)8
_chemical_formula_sum   'Li5 Fe8 B8 O24'
_cell_volume   482.56970578
_cell_formula_units_Z   1
loop_
 _symmetry_equiv_pos_site_id
 _symmetry_equiv_pos_as_xyz
  1  'x, y, z'
loop_
 _atom_site_type_symbol
 _atom_site_label
 _atom_site_symmetry_multiplicity
 _atom_site_fract_x
 _atom_site_fract_y
 _atom_site_fract_z
 _atom_site_occupancy
  Li  Li0  1  0.295158  0.279231  0.901868  1
  Li  Li1  1  0.487771  0.510559  0.665337  1
  Li  Li2  1  0.272016  0.247190  0.165316  1
  Li  Li3  1  0.978682  0.004435  0.659069  1
  Li  Li4  1  0.775994  0.749495  0.167364  1
  Fe  Fe5  1  0.016086  0.352634  0.382404  1
  Fe  Fe6  1  0.269203  0.925459  0.879857  1
  Fe  Fe7  1  0.466889  0.158472  0.627374  1
  Fe  Fe8  1  0.252880  0.563321  0.132075  1
  Fe  Fe9  1  0.772359  0.449102  0.883049  1
  Fe  Fe10  1  0.515031  0.854236  0.382656  1
  Fe  Fe11  1  0.960515  0.650992  0.629175  1
  Fe  Fe12  1  0.751396  0.057773  0.126216  1
  B  B13  1  0.019192  0.683280  0.376425  1
  B  B14  1  0.270668  0.599389  0.875272  1
  B  B15  1  0.473971  0.816648  0.629724  1
  B  B16  1  0.237624  0.895635  0.129065  1
  B  B17  1  0.518752  0.182913  0.374151  1
  B  B18  1  0.762861  0.103894  0.876175  1
  B  B19  1  0.974437  0.315569  0.628547  1
  B  B20  1  0.737282  0.397133  0.127500  1
  O  O21  1  0.022571  0.085586  0.865721  1
  O  O22  1  0.119892  0.712969  0.842756  1
  O  O23  1  0.167790  0.497531  0.921449  1
  O  O24  1  0.101862  0.189938  0.642511  1
  O  O25  1  0.091112  0.418075  0.583439  1
  O  O26  1  0.242294  0.852107  0.674733  1
  O  O27  1  0.256743  0.679682  0.341508  1
  O  O28  1  0.515820  0.591432  0.856036  1
  O  O29  1  0.626597  0.216991  0.841972  1
  O  O30  1  0.448906  0.073014  0.420492  1
  O  O31  1  0.351788  0.292685  0.357007  1
  O  O32  1  0.637189  0.008655  0.920258  1
  O  O33  1  0.337599  0.001695  0.082518  1
  O  O34  1  0.591644  0.684106  0.628730  1
  O  O35  1  0.582787  0.922818  0.586267  1
  O  O36  1  0.410171  0.799108  0.172978  1
  O  O37  1  0.468091  0.376096  0.110615  1
  O  O38  1  0.736105  0.347834  0.660211  1
  O  O39  1  0.754933  0.178153  0.338287  1
  O  O40  1  0.951029  0.573194  0.423068  1
  O  O41  1  0.854741  0.796079  0.363887  1
  O  O42  1  0.845690  0.514793  0.098733  1
  O  O43  1  0.902188  0.297489  0.171801  1
  O  O44  1  0.982320  0.889984  0.132756  1
