# generated using pymatgen
data_Bi17W3O34
_symmetry_space_group_name_H-M   'P 1'
_cell_length_a   10.27397675
_cell_length_b   10.41049012
_cell_length_c   10.41844005
_cell_angle_alpha   107.60518313
_cell_angle_beta   106.16782377
_cell_angle_gamma   113.20569268
_symmetry_Int_Tables_number   1
_chemical_formula_structural   Bi17W3O34
_chemical_formula_sum   'Bi17 W3 O34'
_cell_volume   869.85455747
_cell_formula_units_Z   1
loop_
 _symmetry_equiv_pos_site_id
 _symmetry_equiv_pos_as_xyz
  1  'x, y, z'
loop_
 _atom_site_type_symbol
 _atom_site_label
 _atom_site_symmetry_multiplicity
 _atom_site_fract_x
 _atom_site_fract_y
 _atom_site_fract_z
 _atom_site_occupancy
  Bi  Bi0  1  0.777627  0.693285  0.719696  1
  Bi  Bi1  1  0.526755  0.918100  0.189139  1
  Bi  Bi2  1  0.641372  0.633397  0.000872  1
  Bi  Bi3  1  0.497368  0.596802  0.319707  1
  Bi  Bi4  1  0.983946  0.092094  0.291429  1
  Bi  Bi5  1  0.573363  0.280401  0.077344  1
  Bi  Bi6  1  0.803290  0.026997  0.592138  1
  Bi  Bi7  1  0.347600  0.538473  0.579220  1
  Bi  Bi8  1  0.111228  0.785195  0.130856  1
  Bi  Bi9  1  0.938338  0.740677  0.425166  1
  Bi  Bi10  1  0.436561  0.232984  0.401432  1
  Bi  Bi11  1  0.184135  0.492761  0.912953  1
  Bi  Bi12  1  0.025285  0.439142  0.218719  1
  Bi  Bi13  1  0.269946  0.167388  0.666078  1
  Bi  Bi14  1  0.742989  0.349680  0.822224  1
  Bi  Bi15  1  0.241725  0.834195  0.798036  1
  Bi  Bi16  1  0.669582  0.978244  0.878780  1
  W  W17  1  0.845873  0.352352  0.496867  1
  W  W18  1  0.111208  0.125707  0.005695  1
  W  W19  1  0.395580  0.911378  0.515023  1
  O  O20  1  0.209041  0.740042  0.972423  1
  O  O21  1  0.478002  0.010456  0.980124  1
  O  O22  1  0.380096  0.957696  0.304485  1
  O  O23  1  0.431879  0.652515  0.116184  1
  O  O24  1  0.742009  0.892544  0.123984  1
  O  O25  1  0.682400  0.345386  0.576900  1
  O  O26  1  0.990583  0.350804  0.414626  1
  O  O27  1  0.753944  0.101340  0.411308  1
  O  O28  1  0.536520  0.841767  0.438196  1
  O  O29  1  0.743437  0.581979  0.195592  1
  O  O30  1  0.321614  0.273748  0.144061  1
  O  O31  1  0.949958  0.349226  0.679925  1
  O  O32  1  0.095792  0.012231  0.137497  1
  O  O33  1  0.049908  0.501961  0.034842  1
  O  O34  1  0.757710  0.275449  0.021002  1
  O  O35  1  0.531895  0.523674  0.517772  1
  O  O36  1  0.278584  0.279669  0.507489  1
  O  O37  1  0.016981  0.976624  0.441670  1
  O  O38  1  0.773913  0.773980  0.511199  1
  O  O39  1  0.672413  0.283361  0.305508  1
  O  O40  1  0.179781  0.747206  0.355872  1
  O  O41  1  0.594353  0.703154  0.795925  1
  O  O42  1  0.109706  0.240842  0.894789  1
  O  O43  1  0.869192  0.957320  0.835522  1
  O  O44  1  0.937414  0.570188  0.572356  1
  O  O45  1  0.004067  0.206964  0.109533  1
  O  O46  1  0.263728  0.945817  0.643240  1
  O  O47  1  0.406905  0.115242  0.552418  1
  O  O48  1  0.826438  0.632722  0.931900  1
  O  O49  1  0.529343  0.331600  0.854894  1
  O  O50  1  0.149424  0.979753  0.880478  1
  O  O51  1  0.277468  0.514670  0.348815  1
  O  O52  1  0.429994  0.811205  0.647548  1
  O  O53  1  0.651570  0.079447  0.700553  1
