# generated using pymatgen
data_Ca2Cu2O5
_symmetry_space_group_name_H-M   'P 1'
_cell_length_a   3.59777133
_cell_length_b   10.51651759
_cell_length_c   12.76871125
_cell_angle_alpha   90.00000000
_cell_angle_beta   90.00000000
_cell_angle_gamma   90.00000000
_symmetry_Int_Tables_number   1
_chemical_formula_structural   Ca2Cu2O5
_chemical_formula_sum   'Ca8 Cu8 O20'
_cell_volume   483.11728416
_cell_formula_units_Z   4
loop_
 _symmetry_equiv_pos_site_id
 _symmetry_equiv_pos_as_xyz
  1  'x, y, z'
loop_
 _atom_site_type_symbol
 _atom_site_label
 _atom_site_symmetry_multiplicity
 _atom_site_fract_x
 _atom_site_fract_y
 _atom_site_fract_z
 _atom_site_occupancy
  Ca  Ca0  1  0.823174  0.952274  0.870739  1
  Ca  Ca1  1  0.821190  0.797358  0.537297  1
  Ca  Ca2  1  0.321190  0.702642  0.037297  1
  Ca  Ca3  1  0.323174  0.547726  0.370739  1
  Ca  Ca4  1  0.676826  0.452274  0.870739  1
  Ca  Ca5  1  0.678810  0.297358  0.537297  1
  Ca  Ca6  1  0.178810  0.202642  0.037297  1
  Ca  Ca7  1  0.176826  0.047726  0.370739  1
  Cu  Cu8  1  0.638779  0.986800  0.153875  1
  Cu  Cu9  1  0.855615  0.761006  0.250482  1
  Cu  Cu10  1  0.355615  0.738994  0.750482  1
  Cu  Cu11  1  0.138779  0.513200  0.653875  1
  Cu  Cu12  1  0.861221  0.486800  0.153875  1
  Cu  Cu13  1  0.644385  0.261006  0.250482  1
  Cu  Cu14  1  0.144385  0.238994  0.750482  1
  Cu  Cu15  1  0.361221  0.013200  0.653875  1
  O  O16  1  0.654467  0.916493  0.289019  1
  O  O17  1  0.321309  0.941248  0.522598  1
  O  O18  1  0.632938  0.875990  0.703308  1
  O  O19  1  0.831628  0.830206  0.114521  1
  O  O20  1  0.326059  0.809478  0.882162  1
  O  O21  1  0.826059  0.690522  0.382162  1
  O  O22  1  0.331628  0.669794  0.614521  1
  O  O23  1  0.132938  0.624010  0.203308  1
  O  O24  1  0.821309  0.558752  0.022598  1
  O  O25  1  0.154467  0.583507  0.789019  1
  O  O26  1  0.845533  0.416493  0.289019  1
  O  O27  1  0.178691  0.441248  0.522598  1
  O  O28  1  0.867062  0.375990  0.703308  1
  O  O29  1  0.668372  0.330206  0.114521  1
  O  O30  1  0.173941  0.309478  0.882162  1
  O  O31  1  0.673941  0.190522  0.382162  1
  O  O32  1  0.168372  0.169794  0.614521  1
  O  O33  1  0.367062  0.124010  0.203308  1
  O  O34  1  0.678691  0.058752  0.022598  1
  O  O35  1  0.345533  0.083507  0.789019  1
