# generated using pymatgen
data_Li3Mn2V5O12
_symmetry_space_group_name_H-M   'P 1'
_cell_length_a   5.23126864
_cell_length_b   5.23126864
_cell_length_c   9.83734011
_cell_angle_alpha   85.40040143
_cell_angle_beta   94.59959857
_cell_angle_gamma   61.38806057
_symmetry_Int_Tables_number   1
_chemical_formula_structural   Li3Mn2V5O12
_chemical_formula_sum   'Li3 Mn2 V5 O12'
_cell_volume   233.40060853
_cell_formula_units_Z   1
loop_
 _symmetry_equiv_pos_site_id
 _symmetry_equiv_pos_as_xyz
  1  'x, y, z'
loop_
 _atom_site_type_symbol
 _atom_site_label
 _atom_site_symmetry_multiplicity
 _atom_site_fract_x
 _atom_site_fract_y
 _atom_site_fract_z
 _atom_site_occupancy
  Li  Li0  1  0.681984  0.149075  0.253137  1
  Li  Li1  1  0.149075  0.681984  0.746863  1
  Li  Li2  1  0.077546  0.077546  0.500000  1
  Mn  Mn3  1  0.745815  0.745815  0.500000  1
  Mn  Mn4  1  0.240433  0.240433  0.000000  1
  V  V5  1  0.916474  0.916474  0.000000  1
  V  V6  1  0.577011  0.577011  0.000000  1
  V  V7  1  0.418710  0.418710  0.500000  1
  V  V8  1  0.500861  0.998859  0.746714  1
  V  V9  1  0.998859  0.500861  0.253286  1
  O  O10  1  0.841996  0.659138  0.876783  1
  O  O11  1  0.659138  0.841996  0.123217  1
  O  O12  1  0.918352  0.238560  0.120308  1
  O  O13  1  0.733018  0.455411  0.393144  1
  O  O14  1  0.455411  0.733018  0.606856  1
  O  O15  1  0.759615  0.039399  0.609655  1
  O  O16  1  0.557186  0.259041  0.885419  1
  O  O17  1  0.238560  0.918352  0.879692  1
  O  O18  1  0.376414  0.189433  0.374046  1
  O  O19  1  0.259041  0.557186  0.114581  1
  O  O20  1  0.039399  0.759615  0.390345  1
  O  O21  1  0.189433  0.376414  0.625954  1
