# generated using pymatgen
data_Li3Al2FeO6
_symmetry_space_group_name_H-M   'P 1'
_cell_length_a   4.99974085
_cell_length_b   4.99974085
_cell_length_c   5.11508998
_cell_angle_alpha   80.55847741
_cell_angle_beta   99.44152259
_cell_angle_gamma   60.02042321
_symmetry_Int_Tables_number   1
_chemical_formula_structural   Li3Al2FeO6
_chemical_formula_sum   'Li3 Al2 Fe1 O6'
_cell_volume   104.62970909
_cell_formula_units_Z   1
loop_
 _symmetry_equiv_pos_site_id
 _symmetry_equiv_pos_as_xyz
  1  'x, y, z'
loop_
 _atom_site_type_symbol
 _atom_site_label
 _atom_site_symmetry_multiplicity
 _atom_site_fract_x
 _atom_site_fract_y
 _atom_site_fract_z
 _atom_site_occupancy
  Li  Li0  1  0.832706  0.832706  0.500000  1
  Li  Li1  1  0.500000  0.500000  0.500000  1
  Li  Li2  1  0.167294  0.167294  0.500000  1
  Al  Al3  1  0.666747  0.666747  0.000000  1
  Al  Al4  1  0.333253  0.333253  0.000000  1
  Fe  Fe5  1  0.000000  0.000000  0.000000  1
  O  O6  1  0.725382  0.274618  0.219703  1
  O  O7  1  0.926742  0.420915  0.782360  1
  O  O8  1  0.579085  0.073258  0.782360  1
  O  O9  1  0.420915  0.926742  0.217640  1
  O  O10  1  0.073258  0.579085  0.217640  1
  O  O11  1  0.274618  0.725382  0.780297  1
