# generated using pymatgen
data_MnSb3(PO4)6
_symmetry_space_group_name_H-M   'P 1'
_cell_length_a   8.89878396
_cell_length_b   8.89878396
_cell_length_c   8.89878396
_cell_angle_alpha   58.02455017
_cell_angle_beta   58.02455017
_cell_angle_gamma   58.02455017
_symmetry_Int_Tables_number   1
_chemical_formula_structural   MnSb3(PO4)6
_chemical_formula_sum   'Mn1 Sb3 P6 O24'
_cell_volume   475.70752469
_cell_formula_units_Z   1
loop_
 _symmetry_equiv_pos_site_id
 _symmetry_equiv_pos_as_xyz
  1  'x, y, z'
loop_
 _atom_site_type_symbol
 _atom_site_label
 _atom_site_symmetry_multiplicity
 _atom_site_fract_x
 _atom_site_fract_y
 _atom_site_fract_z
 _atom_site_occupancy
  Mn  Mn0  1  0.143241  0.143241  0.143241  1
  Sb  Sb1  1  0.856725  0.856725  0.856725  1
  Sb  Sb2  1  0.643505  0.643505  0.643505  1
  Sb  Sb3  1  0.356482  0.356482  0.356482  1
  P  P4  1  0.248811  0.533910  0.962842  1
  P  P5  1  0.962842  0.248811  0.533910  1
  P  P6  1  0.533910  0.962842  0.248811  1
  P  P7  1  0.457691  0.038916  0.753869  1
  P  P8  1  0.038916  0.753869  0.457691  1
  P  P9  1  0.753869  0.457691  0.038916  1
  O  O10  1  0.722723  0.487644  0.867053  1
  O  O11  1  0.487644  0.867053  0.722723  1
  O  O12  1  0.075973  0.720424  0.940429  1
  O  O13  1  0.867053  0.722723  0.487644  1
  O  O14  1  0.423959  0.560920  0.781323  1
  O  O15  1  0.224326  0.367042  0.987451  1
  O  O16  1  0.940429  0.075973  0.720424  1
  O  O17  1  0.781323  0.423959  0.560920  1
  O  O18  1  0.560920  0.781323  0.423959  1
  O  O19  1  0.635970  0.013839  0.771612  1
  O  O20  1  0.283071  0.058939  0.922904  1
  O  O21  1  0.013839  0.771612  0.635970  1
  O  O22  1  0.987451  0.224326  0.367042  1
  O  O23  1  0.720424  0.940429  0.075973  1
  O  O24  1  0.367042  0.987451  0.224326  1
  O  O25  1  0.443987  0.217797  0.572796  1
  O  O26  1  0.217797  0.572796  0.443987  1
  O  O27  1  0.058939  0.922904  0.283071  1
  O  O28  1  0.771612  0.635970  0.013839  1
  O  O29  1  0.572796  0.443987  0.217797  1
  O  O30  1  0.132569  0.275186  0.516072  1
  O  O31  1  0.922904  0.283071  0.058939  1
  O  O32  1  0.516072  0.132569  0.275186  1
  O  O33  1  0.275186  0.516072  0.132569  1
