# generated using pymatgen
data_Na2VPCO7
_symmetry_space_group_name_H-M   'P 1'
_cell_length_a   5.26868416
_cell_length_b   6.55163441
_cell_length_c   9.06504746
_cell_angle_alpha   90.00000000
_cell_angle_beta   90.44114185
_cell_angle_gamma   90.00000000
_symmetry_Int_Tables_number   1
_chemical_formula_structural   Na2VPCO7
_chemical_formula_sum   'Na4 V2 P2 C2 O14'
_cell_volume   312.90249766
_cell_formula_units_Z   2
loop_
 _symmetry_equiv_pos_site_id
 _symmetry_equiv_pos_as_xyz
  1  'x, y, z'
loop_
 _atom_site_type_symbol
 _atom_site_label
 _atom_site_symmetry_multiplicity
 _atom_site_fract_x
 _atom_site_fract_y
 _atom_site_fract_z
 _atom_site_occupancy
  Na  Na0  1  0.761899  0.505487  0.230761  1
  Na  Na1  1  0.761899  0.994513  0.230761  1
  Na  Na2  1  0.238101  0.494513  0.769239  1
  Na  Na3  1  0.238101  0.005487  0.769239  1
  V  V4  1  0.212555  0.250000  0.349013  1
  V  V5  1  0.787445  0.750000  0.650987  1
  P  P6  1  0.290517  0.750000  0.423833  1
  P  P7  1  0.709483  0.250000  0.576167  1
  C  C8  1  0.271343  0.250000  0.076638  1
  C  C9  1  0.728657  0.750000  0.923362  1
  O  O10  1  0.694352  0.750000  0.060086  1
  O  O11  1  0.047698  0.250000  0.139270  1
  O  O12  1  0.461435  0.250000  0.175052  1
  O  O13  1  0.209453  0.941411  0.334435  1
  O  O14  1  0.209453  0.558589  0.334435  1
  O  O15  1  0.848384  0.250000  0.424532  1
  O  O16  1  0.582965  0.750000  0.448699  1
  O  O17  1  0.417035  0.250000  0.551301  1
  O  O18  1  0.151616  0.750000  0.575468  1
  O  O19  1  0.790547  0.441411  0.665565  1
  O  O20  1  0.790547  0.058589  0.665565  1
  O  O21  1  0.538565  0.750000  0.824948  1
  O  O22  1  0.952302  0.750000  0.860730  1
  O  O23  1  0.305648  0.250000  0.939914  1
