# generated using pymatgen
data_Na2MnAsCO7
_symmetry_space_group_name_H-M   'P 1'
_cell_length_a   5.39254881
_cell_length_b   6.79488260
_cell_length_c   9.14074724
_cell_angle_alpha   90.00000000
_cell_angle_beta   92.18539823
_cell_angle_gamma   90.00000000
_symmetry_Int_Tables_number   1
_chemical_formula_structural   Na2MnAsCO7
_chemical_formula_sum   'Na4 Mn2 As2 C2 O14'
_cell_volume   334.68924016
_cell_formula_units_Z   2
loop_
 _symmetry_equiv_pos_site_id
 _symmetry_equiv_pos_as_xyz
  1  'x, y, z'
loop_
 _atom_site_type_symbol
 _atom_site_label
 _atom_site_symmetry_multiplicity
 _atom_site_fract_x
 _atom_site_fract_y
 _atom_site_fract_z
 _atom_site_occupancy
  Na  Na0  1  0.769030  0.499951  0.225693  1
  Na  Na1  1  0.769030  0.000049  0.225693  1
  Na  Na2  1  0.230970  0.500049  0.774307  1
  Na  Na3  1  0.230970  0.999951  0.774307  1
  Mn  Mn4  1  0.221652  0.250000  0.349896  1
  Mn  Mn5  1  0.778348  0.750000  0.650104  1
  As  As6  1  0.292580  0.750000  0.426826  1
  As  As7  1  0.707420  0.250000  0.573174  1
  C  C8  1  0.280406  0.250000  0.074346  1
  C  C9  1  0.719594  0.750000  0.925654  1
  O  O10  1  0.726493  0.750000  0.063019  1
  O  O11  1  0.070545  0.250000  0.147606  1
  O  O12  1  0.479359  0.250000  0.158682  1
  O  O13  1  0.208707  0.951304  0.323741  1
  O  O14  1  0.208707  0.548696  0.323741  1
  O  O15  1  0.837480  0.250000  0.405786  1
  O  O16  1  0.616699  0.750000  0.453690  1
  O  O17  1  0.383301  0.250000  0.546310  1
  O  O18  1  0.162520  0.750000  0.594214  1
  O  O19  1  0.791293  0.451304  0.676259  1
  O  O20  1  0.791293  0.048696  0.676259  1
  O  O21  1  0.520641  0.750000  0.841318  1
  O  O22  1  0.929455  0.750000  0.852394  1
  O  O23  1  0.273507  0.250000  0.936981  1
