# generated using pymatgen
data_VCr2O6
_symmetry_space_group_name_H-M   'P 1'
_cell_length_a   5.17159855
_cell_length_b   5.42387401
_cell_length_c   13.90745098
_cell_angle_alpha   90.00000000
_cell_angle_beta   90.00000000
_cell_angle_gamma   90.00000000
_symmetry_Int_Tables_number   1
_chemical_formula_structural   VCr2O6
_chemical_formula_sum   'V4 Cr8 O24'
_cell_volume   390.10537635
_cell_formula_units_Z   4
loop_
 _symmetry_equiv_pos_site_id
 _symmetry_equiv_pos_as_xyz
  1  'x, y, z'
loop_
 _atom_site_type_symbol
 _atom_site_label
 _atom_site_symmetry_multiplicity
 _atom_site_fract_x
 _atom_site_fract_y
 _atom_site_fract_z
 _atom_site_occupancy
  V  V0  1  0.750000  0.658434  0.000000  1
  V  V1  1  0.750000  0.158434  0.500000  1
  V  V2  1  0.250000  0.341566  0.000000  1
  V  V3  1  0.250000  0.841566  0.500000  1
  Cr  Cr4  1  0.009366  0.857723  0.174299  1
  Cr  Cr5  1  0.009366  0.357723  0.325701  1
  Cr  Cr6  1  0.990634  0.642277  0.674299  1
  Cr  Cr7  1  0.990634  0.142277  0.825701  1
  Cr  Cr8  1  0.509366  0.642277  0.325701  1
  Cr  Cr9  1  0.490634  0.357723  0.674299  1
  Cr  Cr10  1  0.509366  0.142277  0.174299  1
  Cr  Cr11  1  0.490634  0.857723  0.825701  1
  O  O12  1  0.937475  0.890099  0.569755  1
  O  O13  1  0.809483  0.382990  0.593456  1
  O  O14  1  0.809483  0.882990  0.906544  1
  O  O15  1  0.937475  0.390099  0.930245  1
  O  O16  1  0.846820  0.629819  0.259867  1
  O  O17  1  0.846820  0.129819  0.240133  1
  O  O18  1  0.653180  0.629819  0.740133  1
  O  O19  1  0.653180  0.129819  0.759867  1
  O  O20  1  0.690517  0.882990  0.093456  1
  O  O21  1  0.562525  0.390099  0.069755  1
  O  O22  1  0.562525  0.890099  0.430245  1
  O  O23  1  0.690517  0.382990  0.406544  1
  O  O24  1  0.309483  0.617010  0.593456  1
  O  O25  1  0.437475  0.109901  0.569755  1
  O  O26  1  0.437475  0.609901  0.930245  1
  O  O27  1  0.309483  0.117010  0.906544  1
  O  O28  1  0.346820  0.870181  0.240133  1
  O  O29  1  0.346820  0.370181  0.259867  1
  O  O30  1  0.153180  0.870181  0.759867  1
  O  O31  1  0.153180  0.370181  0.740133  1
  O  O32  1  0.190517  0.117010  0.093456  1
  O  O33  1  0.062525  0.109901  0.430245  1
  O  O34  1  0.190517  0.617010  0.406544  1
  O  O35  1  0.062525  0.609901  0.069755  1
