# generated using pymatgen
data_Li2FeBPO7
_symmetry_space_group_name_H-M   'P 1'
_cell_length_a   5.12861288
_cell_length_b   6.42832125
_cell_length_c   8.52342077
_cell_angle_alpha   90.00000000
_cell_angle_beta   93.66698128
_cell_angle_gamma   90.00000000
_symmetry_Int_Tables_number   1
_chemical_formula_structural   Li2FeBPO7
_chemical_formula_sum   'Li4 Fe2 B2 P2 O14'
_cell_volume   280.42798502
_cell_formula_units_Z   2
loop_
 _symmetry_equiv_pos_site_id
 _symmetry_equiv_pos_as_xyz
  1  'x, y, z'
loop_
 _atom_site_type_symbol
 _atom_site_label
 _atom_site_symmetry_multiplicity
 _atom_site_fract_x
 _atom_site_fract_y
 _atom_site_fract_z
 _atom_site_occupancy
  Li  Li0  1  0.772578  0.481672  0.217271  1
  Li  Li1  1  0.772578  0.018328  0.217271  1
  Li  Li2  1  0.227422  0.981672  0.782729  1
  Li  Li3  1  0.227422  0.518328  0.782729  1
  Fe  Fe4  1  0.219018  0.250000  0.341575  1
  Fe  Fe5  1  0.780982  0.750000  0.658425  1
  B  B6  1  0.267107  0.250000  0.055269  1
  B  B7  1  0.732893  0.750000  0.944731  1
  P  P8  1  0.267796  0.750000  0.424869  1
  P  P9  1  0.732204  0.250000  0.575131  1
  O  O10  1  0.710070  0.750000  0.100497  1
  O  O11  1  0.028043  0.250000  0.122571  1
  O  O12  1  0.473563  0.250000  0.169492  1
  O  O13  1  0.181285  0.941737  0.327311  1
  O  O14  1  0.181285  0.558263  0.327311  1
  O  O15  1  0.853676  0.250000  0.411821  1
  O  O16  1  0.571474  0.750000  0.460425  1
  O  O17  1  0.428526  0.250000  0.539575  1
  O  O18  1  0.146324  0.750000  0.588179  1
  O  O19  1  0.818715  0.441737  0.672689  1
  O  O20  1  0.818715  0.058263  0.672689  1
  O  O21  1  0.526437  0.750000  0.830508  1
  O  O22  1  0.971957  0.750000  0.877429  1
  O  O23  1  0.289930  0.250000  0.899503  1
