# generated using pymatgen
data_NbFeO4
_symmetry_space_group_name_H-M   'P 1'
_cell_length_a   6.19038042
_cell_length_b   6.19038042
_cell_length_c   8.55942166
_cell_angle_alpha   90.00000000
_cell_angle_beta   90.00000000
_cell_angle_gamma   90.00000000
_symmetry_Int_Tables_number   1
_chemical_formula_structural   NbFeO4
_chemical_formula_sum   'Nb4 Fe4 O16'
_cell_volume   328.00396895
_cell_formula_units_Z   4
loop_
 _symmetry_equiv_pos_site_id
 _symmetry_equiv_pos_as_xyz
  1  'x, y, z'
loop_
 _atom_site_type_symbol
 _atom_site_label
 _atom_site_symmetry_multiplicity
 _atom_site_fract_x
 _atom_site_fract_y
 _atom_site_fract_z
 _atom_site_occupancy
  Nb  Nb0  1  0.205632  0.500000  0.250000  1
  Nb  Nb1  1  0.500000  0.205632  0.000000  1
  Nb  Nb2  1  0.500000  0.794368  0.500000  1
  Nb  Nb3  1  0.794368  0.500000  0.750000  1
  Fe  Fe4  1  0.265062  0.265062  0.625000  1
  Fe  Fe5  1  0.265062  0.734938  0.875000  1
  Fe  Fe6  1  0.734938  0.265062  0.375000  1
  Fe  Fe7  1  0.734938  0.734938  0.125000  1
  O  O8  1  0.003931  0.277211  0.272110  1
  O  O9  1  0.003931  0.722789  0.227890  1
  O  O10  1  0.277211  0.003931  0.977890  1
  O  O11  1  0.277211  0.996069  0.522110  1
  O  O12  1  0.277932  0.495102  0.019304  1
  O  O13  1  0.277932  0.504898  0.480695  1
  O  O14  1  0.495102  0.277932  0.230695  1
  O  O15  1  0.495102  0.722068  0.269305  1
  O  O16  1  0.504898  0.277932  0.769304  1
  O  O17  1  0.504898  0.722068  0.730696  1
  O  O18  1  0.722068  0.504898  0.519304  1
  O  O19  1  0.722068  0.495102  0.980696  1
  O  O20  1  0.722789  0.003931  0.022110  1
  O  O21  1  0.722789  0.996069  0.477890  1
  O  O22  1  0.996069  0.277211  0.727890  1
  O  O23  1  0.996069  0.722789  0.772110  1
