# generated using pymatgen
data_NaLi5Mn2P2(CO7)2
_symmetry_space_group_name_H-M   'P 1'
_cell_length_a   6.70172211
_cell_length_b   8.63863792
_cell_length_c   10.00903733
_cell_angle_alpha   87.41027400
_cell_angle_beta   89.84086408
_cell_angle_gamma   89.12205097
_symmetry_Int_Tables_number   1
_chemical_formula_structural   NaLi5Mn2P2(CO7)2
_chemical_formula_sum   'Na2 Li10 Mn4 P4 C4 O28'
_cell_volume   578.79968420
_cell_formula_units_Z   2
loop_
 _symmetry_equiv_pos_site_id
 _symmetry_equiv_pos_as_xyz
  1  'x, y, z'
loop_
 _atom_site_type_symbol
 _atom_site_label
 _atom_site_symmetry_multiplicity
 _atom_site_fract_x
 _atom_site_fract_y
 _atom_site_fract_z
 _atom_site_occupancy
  Na  Na0  1  0.498532  0.752369  0.624057  1
  Na  Na1  1  0.501468  0.247631  0.375943  1
  Li  Li2  1  0.758525  0.914778  0.880667  1
  Li  Li3  1  0.778615  0.908710  0.375479  1
  Li  Li4  1  0.966261  0.731637  0.133260  1
  Li  Li5  1  0.533526  0.733161  0.134840  1
  Li  Li6  1  0.972375  0.726843  0.636191  1
  Li  Li7  1  0.466474  0.266839  0.865160  1
  Li  Li8  1  0.033739  0.268363  0.866740  1
  Li  Li9  1  0.027625  0.273157  0.363809  1
  Li  Li10  1  0.241475  0.085222  0.119333  1
  Li  Li11  1  0.221385  0.091290  0.624521  1
  Mn  Mn12  1  0.243057  0.650660  0.868030  1
  Mn  Mn13  1  0.248662  0.646377  0.356701  1
  Mn  Mn14  1  0.756943  0.349340  0.131970  1
  Mn  Mn15  1  0.751338  0.353623  0.643299  1
  P  P16  1  0.747683  0.593427  0.897699  1
  P  P17  1  0.759229  0.590362  0.389826  1
  P  P18  1  0.252317  0.406573  0.102301  1
  P  P19  1  0.240771  0.409638  0.610174  1
  C  C20  1  0.249265  0.963866  0.886581  1
  C  C21  1  0.236953  0.958318  0.387929  1
  C  C22  1  0.750735  0.036134  0.113419  1
  C  C23  1  0.763047  0.041682  0.612071  1
  O  O24  1  0.745288  0.890856  0.083393  1
  O  O25  1  0.781414  0.899564  0.575335  1
  O  O26  1  0.251676  0.923930  0.763389  1
  O  O27  1  0.246062  0.924888  0.263633  1
  O  O28  1  0.240161  0.859082  0.983902  1
  O  O29  1  0.246182  0.847215  0.480769  1
  O  O30  1  0.924974  0.691665  0.842133  1
  O  O31  1  0.558448  0.686122  0.853013  1
  O  O32  1  0.931544  0.694366  0.333939  1
  O  O33  1  0.566300  0.680255  0.344213  1
  O  O34  1  0.757734  0.582424  0.054341  1
  O  O35  1  0.248879  0.576172  0.149711  1
  O  O36  1  0.770571  0.577645  0.545928  1
  O  O37  1  0.230270  0.576240  0.661406  1
  O  O38  1  0.751121  0.423828  0.850289  1
  O  O39  1  0.242266  0.417576  0.945659  1
  O  O40  1  0.769730  0.423760  0.338594  1
  O  O41  1  0.229429  0.422355  0.454072  1
  O  O42  1  0.441552  0.313878  0.146987  1
  O  O43  1  0.075026  0.308335  0.157867  1
  O  O44  1  0.433700  0.319745  0.655787  1
  O  O45  1  0.068456  0.305634  0.666061  1
  O  O46  1  0.759839  0.140918  0.016098  1
  O  O47  1  0.753818  0.152785  0.519231  1
  O  O48  1  0.748324  0.076070  0.236611  1
  O  O49  1  0.753938  0.075112  0.736367  1
  O  O50  1  0.254712  0.109144  0.916607  1
  O  O51  1  0.218586  0.100436  0.424665  1
