# generated using pymatgen
data_Li4MnCr2Fe3(PO4)6
_symmetry_space_group_name_H-M   'P 1'
_cell_length_a   8.37551396
_cell_length_b   8.56800033
_cell_length_c   8.70176856
_cell_angle_alpha   62.79518938
_cell_angle_beta   63.59354751
_cell_angle_gamma   63.90202055
_symmetry_Int_Tables_number   1
_chemical_formula_structural   Li4MnCr2Fe3(PO4)6
_chemical_formula_sum   'Li4 Mn1 Cr2 Fe3 P6 O24'
_cell_volume   474.98097352
_cell_formula_units_Z   1
loop_
 _symmetry_equiv_pos_site_id
 _symmetry_equiv_pos_as_xyz
  1  'x, y, z'
loop_
 _atom_site_type_symbol
 _atom_site_label
 _atom_site_symmetry_multiplicity
 _atom_site_fract_x
 _atom_site_fract_y
 _atom_site_fract_z
 _atom_site_occupancy
  Li  Li0  1  0.250878  0.640895  0.858348  1
  Li  Li1  1  0.746830  0.342144  0.160320  1
  Li  Li2  1  0.351429  0.156108  0.749242  1
  Li  Li3  1  0.149563  0.749771  0.344207  1
  Mn  Mn4  1  0.152581  0.157161  0.160723  1
  Cr  Cr5  1  0.996199  0.005360  0.000131  1
  Cr  Cr6  1  0.503143  0.501670  0.494067  1
  Fe  Fe7  1  0.852303  0.857607  0.851595  1
  Fe  Fe8  1  0.648909  0.646392  0.643943  1
  Fe  Fe9  1  0.348978  0.342456  0.344009  1
  P  P10  1  0.749405  0.044861  0.458730  1
  P  P11  1  0.444146  0.747354  0.038184  1
  P  P12  1  0.054756  0.460531  0.751561  1
  P  P13  1  0.933369  0.560151  0.251938  1
  P  P14  1  0.567927  0.247396  0.942469  1
  P  P15  1  0.250664  0.937538  0.559180  1
  O  O16  1  0.894063  0.524218  0.676303  1
  O  O17  1  0.672878  0.890380  0.503975  1
  O  O18  1  0.929577  0.746155  0.088741  1
  O  O19  1  0.465672  0.679257  0.891483  1
  O  O20  1  0.954230  0.406791  0.192356  1
  O  O21  1  0.742016  0.581987  0.406770  1
  O  O22  1  0.760640  0.092252  0.920002  1
  O  O23  1  0.576159  0.410739  0.759912  1
  O  O24  1  0.821174  0.001708  0.612436  1
  O  O25  1  0.402133  0.742228  0.588116  1
  O  O26  1  0.899559  0.063862  0.268060  1
  O  O27  1  0.608013  0.819308  0.978668  1
  O  O28  1  0.408997  0.182936  0.970926  1
  O  O29  1  0.100220  0.910290  0.752236  1
  O  O30  1  0.597957  0.238770  0.437602  1
  O  O31  1  0.190355  0.960355  0.406231  1
  O  O32  1  0.433640  0.597452  0.228845  1
  O  O33  1  0.248529  0.899285  0.064723  1
  O  O34  1  0.250401  0.436518  0.600782  1
  O  O35  1  0.031899  0.604810  0.824955  1
  O  O36  1  0.541302  0.303316  0.099412  1
  O  O37  1  0.064259  0.265076  0.897652  1
  O  O38  1  0.310186  0.097116  0.529472  1
  O  O39  1  0.095058  0.524795  0.314697  1
