# generated using pymatgen
data_LiMn2(PO3)5
_symmetry_space_group_name_H-M   'P 1'
_cell_length_a   5.17412358
_cell_length_b   13.18595406
_cell_length_c   8.74285239
_cell_angle_alpha   90.00000000
_cell_angle_beta   103.46174617
_cell_angle_gamma   90.00000000
_symmetry_Int_Tables_number   1
_chemical_formula_structural   LiMn2(PO3)5
_chemical_formula_sum   'Li2 Mn4 P10 O30'
_cell_volume   580.09954927
_cell_formula_units_Z   2
loop_
 _symmetry_equiv_pos_site_id
 _symmetry_equiv_pos_as_xyz
  1  'x, y, z'
loop_
 _atom_site_type_symbol
 _atom_site_label
 _atom_site_symmetry_multiplicity
 _atom_site_fract_x
 _atom_site_fract_y
 _atom_site_fract_z
 _atom_site_occupancy
  Li  Li0  1  0.500000  0.000000  0.500000  1
  Li  Li1  1  0.500000  0.500000  0.500000  1
  Mn  Mn2  1  0.130752  0.902634  0.154915  1
  Mn  Mn3  1  0.130752  0.597366  0.154915  1
  Mn  Mn4  1  0.869248  0.402634  0.845085  1
  Mn  Mn5  1  0.869248  0.097366  0.845085  1
  P  P6  1  0.028324  0.361466  0.500406  1
  P  P7  1  0.028324  0.138534  0.500406  1
  P  P8  1  0.343196  0.929620  0.812621  1
  P  P9  1  0.343196  0.570380  0.812621  1
  P  P10  1  0.440655  0.250000  0.980654  1
  P  P11  1  0.559345  0.750000  0.019346  1
  P  P12  1  0.656804  0.429620  0.187379  1
  P  P13  1  0.656804  0.070380  0.187379  1
  P  P14  1  0.971676  0.638534  0.499594  1
  P  P15  1  0.971676  0.861466  0.499594  1
  O  O16  1  0.046354  0.750000  0.453589  1
  O  O17  1  0.166268  0.963748  0.920086  1
  O  O18  1  0.166268  0.536252  0.920086  1
  O  O19  1  0.166349  0.250000  0.874672  1
  O  O20  1  0.174632  0.866082  0.672769  1
  O  O21  1  0.174632  0.633918  0.672769  1
  O  O22  1  0.080877  0.572544  0.386839  1
  O  O23  1  0.080877  0.927456  0.386839  1
  O  O24  1  0.306743  0.370939  0.485574  1
  O  O25  1  0.306743  0.129061  0.485574  1
  O  O26  1  0.547846  0.845042  0.904131  1
  O  O27  1  0.547846  0.654958  0.904131  1
  O  O28  1  0.510450  0.008539  0.758308  1
  O  O29  1  0.510450  0.491461  0.758308  1
  O  O30  1  0.319260  0.750000  0.092045  1
  O  O31  1  0.680740  0.250000  0.907955  1
  O  O32  1  0.489550  0.508539  0.241692  1
  O  O33  1  0.489550  0.991461  0.241692  1
  O  O34  1  0.452154  0.345042  0.095869  1
  O  O35  1  0.452154  0.154958  0.095869  1
  O  O36  1  0.693257  0.870939  0.514426  1
  O  O37  1  0.693257  0.629061  0.514426  1
  O  O38  1  0.919123  0.427456  0.613161  1
  O  O39  1  0.919123  0.072544  0.613161  1
  O  O40  1  0.825368  0.366082  0.327231  1
  O  O41  1  0.825368  0.133918  0.327231  1
  O  O42  1  0.833651  0.750000  0.125328  1
  O  O43  1  0.833732  0.463748  0.079914  1
  O  O44  1  0.833732  0.036252  0.079914  1
  O  O45  1  0.953646  0.250000  0.546411  1
