# generated using pymatgen
data_Li6Co(SiO4)2
_symmetry_space_group_name_H-M   'P 1'
_cell_length_a   5.10315476
_cell_length_b   5.52393861
_cell_length_c   6.23560353
_cell_angle_alpha   87.98944344
_cell_angle_beta   79.24532542
_cell_angle_gamma   84.16051655
_symmetry_Int_Tables_number   1
_chemical_formula_structural   Li6Co(SiO4)2
_chemical_formula_sum   'Li6 Co1 Si2 O8'
_cell_volume   171.77168069
_cell_formula_units_Z   1
loop_
 _symmetry_equiv_pos_site_id
 _symmetry_equiv_pos_as_xyz
  1  'x, y, z'
loop_
 _atom_site_type_symbol
 _atom_site_label
 _atom_site_symmetry_multiplicity
 _atom_site_fract_x
 _atom_site_fract_y
 _atom_site_fract_z
 _atom_site_occupancy
  Li  Li0  1  0.816828  0.583576  0.196351  1
  Li  Li1  1  0.376748  0.749656  0.967576  1
  Li  Li2  1  0.211355  0.643114  0.387366  1
  Li  Li3  1  0.788645  0.356886  0.612634  1
  Li  Li4  1  0.623252  0.250344  0.032424  1
  Li  Li5  1  0.183172  0.416424  0.803649  1
  Co  Co6  1  0.500000  0.000000  0.500000  1
  Si  Si7  1  0.869674  0.795425  0.721994  1
  Si  Si8  1  0.130326  0.204575  0.278006  1
  O  O9  1  0.197509  0.781513  0.705958  1
  O  O10  1  0.310441  0.942285  0.226643  1
  O  O11  1  0.804381  0.711738  0.483539  1
  O  O12  1  0.760235  0.580580  0.897584  1
  O  O13  1  0.239765  0.419420  0.102416  1
  O  O14  1  0.195619  0.288262  0.516461  1
  O  O15  1  0.689559  0.057715  0.773357  1
  O  O16  1  0.802491  0.218487  0.294042  1
