# generated using pymatgen
data_Li3Sn(BO3)2
_symmetry_space_group_name_H-M   'P 1'
_cell_length_a   5.01435414
_cell_length_b   7.25439338
_cell_length_c   8.01114855
_cell_angle_alpha   110.73911467
_cell_angle_beta   92.57790606
_cell_angle_gamma   89.62318352
_symmetry_Int_Tables_number   1
_chemical_formula_structural   Li3Sn(BO3)2
_chemical_formula_sum   'Li6 Sn2 B4 O12'
_cell_volume   272.24196068
_cell_formula_units_Z   2
loop_
 _symmetry_equiv_pos_site_id
 _symmetry_equiv_pos_as_xyz
  1  'x, y, z'
loop_
 _atom_site_type_symbol
 _atom_site_label
 _atom_site_symmetry_multiplicity
 _atom_site_fract_x
 _atom_site_fract_y
 _atom_site_fract_z
 _atom_site_occupancy
  Li  Li0  1  0.820168  0.089074  0.938971  1
  Li  Li1  1  0.680522  0.942952  0.252296  1
  Li  Li2  1  0.672358  0.239754  0.622329  1
  Li  Li3  1  0.327642  0.760246  0.377671  1
  Li  Li4  1  0.319478  0.057048  0.747704  1
  Li  Li5  1  0.179832  0.910926  0.061029  1
  Sn  Sn6  1  0.867400  0.448009  0.326928  1
  Sn  Sn7  1  0.132600  0.551991  0.673072  1
  B  B8  1  0.833664  0.866901  0.573231  1
  B  B9  1  0.657117  0.685205  0.896865  1
  B  B10  1  0.342883  0.314795  0.103135  1
  B  B11  1  0.166336  0.133099  0.426769  1
  O  O12  1  0.895413  0.168160  0.392726  1
  O  O13  1  0.776955  0.517635  0.776045  1
  O  O14  1  0.796048  0.840959  0.010249  1
  O  O15  1  0.716204  0.741410  0.406357  1
  O  O16  1  0.692267  0.008937  0.690591  1
  O  O17  1  0.626357  0.315711  0.108780  1
  O  O18  1  0.373643  0.684289  0.891220  1
  O  O19  1  0.307733  0.991063  0.309409  1
  O  O20  1  0.283796  0.258590  0.593643  1
  O  O21  1  0.203952  0.159041  0.989751  1
  O  O22  1  0.223045  0.482365  0.223955  1
  O  O23  1  0.104587  0.831840  0.607274  1
