# generated using pymatgen
data_Mg2FeO4
_symmetry_space_group_name_H-M   'P 1'
_cell_length_a   6.01056158
_cell_length_b   6.01056158
_cell_length_c   6.01056158
_cell_angle_alpha   60.00000000
_cell_angle_beta   60.00000000
_cell_angle_gamma   60.00000000
_symmetry_Int_Tables_number   1
_chemical_formula_structural   Mg2FeO4
_chemical_formula_sum   'Mg4 Fe2 O8'
_cell_volume   153.54304728
_cell_formula_units_Z   2
loop_
 _symmetry_equiv_pos_site_id
 _symmetry_equiv_pos_as_xyz
  1  'x, y, z'
loop_
 _atom_site_type_symbol
 _atom_site_label
 _atom_site_symmetry_multiplicity
 _atom_site_fract_x
 _atom_site_fract_y
 _atom_site_fract_z
 _atom_site_occupancy
  Mg  Mg0  1  0.625000  0.625000  0.125000  1
  Mg  Mg1  1  0.125000  0.625000  0.625000  1
  Mg  Mg2  1  0.625000  0.625000  0.625000  1
  Mg  Mg3  1  0.625000  0.125000  0.625000  1
  Fe  Fe4  1  0.250000  0.250000  0.250000  1
  Fe  Fe5  1  0.000000  0.000000  0.000000  1
  O  O6  1  0.378532  0.864403  0.378532  1
  O  O7  1  0.378532  0.378532  0.378532  1
  O  O8  1  0.871468  0.385597  0.871468  1
  O  O9  1  0.871468  0.871468  0.871468  1
  O  O10  1  0.385597  0.871468  0.871468  1
  O  O11  1  0.871468  0.871468  0.385597  1
  O  O12  1  0.378532  0.378532  0.864403  1
  O  O13  1  0.864403  0.378532  0.378532  1
