# generated using pymatgen
data_V9O17
_symmetry_space_group_name_H-M   'P 1'
_cell_length_a   5.53664097
_cell_length_b   7.11857977
_cell_length_c   14.77072782
_cell_angle_alpha   96.04318126
_cell_angle_beta   90.22058425
_cell_angle_gamma   108.15615742
_symmetry_Int_Tables_number   1
_chemical_formula_structural   V9O17
_chemical_formula_sum   'V18 O34'
_cell_volume   549.68562364
_cell_formula_units_Z   2
loop_
 _symmetry_equiv_pos_site_id
 _symmetry_equiv_pos_as_xyz
  1  'x, y, z'
loop_
 _atom_site_type_symbol
 _atom_site_label
 _atom_site_symmetry_multiplicity
 _atom_site_fract_x
 _atom_site_fract_y
 _atom_site_fract_z
 _atom_site_occupancy
  V  V0  1  0.672175  0.914132  0.267469  1
  V  V1  1  0.330252  0.081790  0.727186  1
  V  V2  1  0.257078  0.119209  0.159264  1
  V  V3  1  0.750122  0.896155  0.841364  1
  V  V4  1  0.671627  0.416830  0.271236  1
  V  V5  1  0.326890  0.585139  0.724374  1
  V  V6  1  0.084993  0.201504  0.385982  1
  V  V7  1  0.911672  0.795875  0.615352  1
  V  V8  1  0.758013  0.405412  0.839283  1
  V  V9  1  0.255180  0.616583  0.163606  1
  V  V10  1  0.202542  0.694917  0.960769  1
  V  V11  1  0.812232  0.318047  0.042987  1
  V  V12  1  0.078607  0.701110  0.390996  1
  V  V13  1  0.909846  0.291202  0.613152  1
  V  V14  1  0.196446  0.193928  0.955984  1
  V  V15  1  0.810625  0.813271  0.041474  1
  V  V16  1  0.503234  0.996358  0.500282  1
  V  V17  1  0.493106  0.496012  0.499225  1
  O  O18  1  0.852764  0.195156  0.905332  1
  O  O19  1  0.157173  0.814326  0.093475  1
  O  O20  1  0.042323  0.069496  0.250748  1
  O  O21  1  0.976763  0.929046  0.740959  1
  O  O22  1  0.801043  0.004932  0.582974  1
  O  O23  1  0.198176  0.976358  0.416358  1
  O  O24  1  0.804226  0.539907  0.979053  1
  O  O25  1  0.207534  0.461111  0.021914  1
  O  O26  1  0.269425  0.954565  0.605915  1
  O  O27  1  0.745215  0.049937  0.395412  1
  O  O28  1  0.433726  0.356360  0.374309  1
  O  O29  1  0.548435  0.627611  0.629914  1
  O  O30  1  0.203579  0.298258  0.694429  1
  O  O31  1  0.778187  0.685116  0.306673  1
  O  O32  1  0.372248  0.400445  0.194378  1
  O  O33  1  0.624645  0.592328  0.807638  1
  O  O34  1  0.851172  0.664420  0.492073  1
  O  O35  1  0.138243  0.323305  0.510035  1
  O  O36  1  0.528281  0.814578  0.954183  1
  O  O37  1  0.457202  0.186960  0.044837  1
  O  O38  1  0.962970  0.116178  0.068864  1
  O  O39  1  0.039325  0.896395  0.929531  1
  O  O40  1  0.562160  0.134852  0.227686  1
  O  O41  1  0.440479  0.878379  0.769630  1
  O  O42  1  0.603184  0.768939  0.141644  1
  O  O43  1  0.384942  0.226171  0.860158  1
  O  O44  1  0.970455  0.425736  0.348416  1
  O  O45  1  0.029441  0.579193  0.653190  1
  O  O46  1  0.629844  0.296759  0.540889  1
  O  O47  1  0.377032  0.699936  0.463829  1
  O  O48  1  0.691765  0.252259  0.723429  1
  O  O49  1  0.292360  0.738735  0.275292  1
  O  O50  1  0.888099  0.453832  0.158985  1
  O  O51  1  0.112942  0.550943  0.837860  1
