# generated using pymatgen
data_CrBi8O15
_symmetry_space_group_name_H-M   'P 1'
_cell_length_a   9.80200519
_cell_length_b   12.07080125
_cell_length_c   14.06205461
_cell_angle_alpha   90.00000000
_cell_angle_beta   103.92424724
_cell_angle_gamma   90.00000000
_symmetry_Int_Tables_number   1
_chemical_formula_structural   CrBi8O15
_chemical_formula_sum   'Cr4 Bi32 O60'
_cell_volume   1614.90390966
_cell_formula_units_Z   4
loop_
 _symmetry_equiv_pos_site_id
 _symmetry_equiv_pos_as_xyz
  1  'x, y, z'
loop_
 _atom_site_type_symbol
 _atom_site_label
 _atom_site_symmetry_multiplicity
 _atom_site_fract_x
 _atom_site_fract_y
 _atom_site_fract_z
 _atom_site_occupancy
  Cr  Cr0  1  0.355269  0.250000  0.518223  1
  Cr  Cr1  1  0.731491  0.250000  0.244810  1
  Cr  Cr2  1  0.644731  0.750000  0.481777  1
  Cr  Cr3  1  0.268509  0.750000  0.755190  1
  Bi  Bi4  1  0.344210  0.750000  0.263916  1
  Bi  Bi5  1  0.663107  0.411275  0.481932  1
  Bi  Bi6  1  0.659227  0.573258  0.755218  1
  Bi  Bi7  1  0.664692  0.750000  0.976582  1
  Bi  Bi8  1  0.336893  0.588725  0.518068  1
  Bi  Bi9  1  0.671851  0.071237  0.988570  1
  Bi  Bi10  1  0.951413  0.559674  0.610758  1
  Bi  Bi11  1  0.019101  0.579150  0.123417  1
  Bi  Bi12  1  0.336893  0.911275  0.518068  1
  Bi  Bi13  1  0.048587  0.059674  0.389242  1
  Bi  Bi14  1  0.312298  0.399764  0.760919  1
  Bi  Bi15  1  0.962144  0.750000  0.873728  1
  Bi  Bi16  1  0.655790  0.250000  0.736084  1
  Bi  Bi17  1  0.671851  0.428763  0.988570  1
  Bi  Bi18  1  0.687702  0.600236  0.239081  1
  Bi  Bi19  1  0.687702  0.899764  0.239081  1
  Bi  Bi20  1  0.019101  0.920850  0.123417  1
  Bi  Bi21  1  0.328149  0.571237  0.011430  1
  Bi  Bi22  1  0.659227  0.926742  0.755218  1
  Bi  Bi23  1  0.328149  0.928763  0.011430  1
  Bi  Bi24  1  0.340773  0.426742  0.244782  1
  Bi  Bi25  1  0.335308  0.250000  0.023418  1
  Bi  Bi26  1  0.990728  0.250000  0.646708  1
  Bi  Bi27  1  0.951413  0.940326  0.610758  1
  Bi  Bi28  1  0.980899  0.420850  0.876583  1
  Bi  Bi29  1  0.048587  0.440326  0.389242  1
  Bi  Bi30  1  0.037856  0.250000  0.126272  1
  Bi  Bi31  1  0.663107  0.088725  0.481932  1
  Bi  Bi32  1  0.980899  0.079150  0.876583  1
  Bi  Bi33  1  0.312298  0.100236  0.760919  1
  Bi  Bi34  1  0.340773  0.073258  0.244782  1
  Bi  Bi35  1  0.009272  0.750000  0.353292  1
  O  O36  1  0.743754  0.476941  0.624630  1
  O  O37  1  0.884902  0.581318  0.802370  1
  O  O38  1  0.302434  0.750000  0.877643  1
  O  O39  1  0.468790  0.250000  0.809370  1
  O  O40  1  0.093381  0.750000  0.712649  1
  O  O41  1  0.811743  0.750000  0.473335  1
  O  O42  1  0.336001  0.863218  0.715409  1
  O  O43  1  0.609550  0.576464  0.902346  1
  O  O44  1  0.806447  0.750000  0.241251  1
  O  O45  1  0.336001  0.636782  0.715409  1
  O  O46  1  0.193553  0.250000  0.758749  1
  O  O47  1  0.281466  0.603261  0.168959  1
  O  O48  1  0.102078  0.750000  0.230055  1
  O  O49  1  0.697566  0.250000  0.122357  1
  O  O50  1  0.103238  0.927665  0.983353  1
  O  O51  1  0.438483  0.137104  0.574335  1
  O  O52  1  0.637119  0.750000  0.598416  1
  O  O53  1  0.115098  0.418682  0.197630  1
  O  O54  1  0.124323  0.547249  0.520923  1
  O  O55  1  0.561517  0.637104  0.425665  1
  O  O56  1  0.896762  0.072335  0.016647  1
  O  O57  1  0.663999  0.363218  0.284591  1
  O  O58  1  0.281466  0.896739  0.168959  1
  O  O59  1  0.438483  0.362896  0.574335  1
  O  O60  1  0.390450  0.076464  0.097654  1
  O  O61  1  0.934178  0.931257  0.299578  1
  O  O62  1  0.884902  0.918682  0.802370  1
  O  O63  1  0.390450  0.423536  0.097654  1
  O  O64  1  0.714834  0.567988  0.098021  1
  O  O65  1  0.124323  0.952751  0.520923  1
  O  O66  1  0.285166  0.432012  0.901979  1
  O  O67  1  0.285166  0.067988  0.901979  1
  O  O68  1  0.285017  0.250000  0.177672  1
  O  O69  1  0.714983  0.750000  0.822328  1
  O  O70  1  0.714834  0.932012  0.098021  1
  O  O71  1  0.892618  0.750000  0.011569  1
  O  O72  1  0.115098  0.081318  0.197630  1
  O  O73  1  0.663999  0.136782  0.284591  1
  O  O74  1  0.256246  0.976941  0.375370  1
  O  O75  1  0.875677  0.047249  0.479077  1
  O  O76  1  0.896762  0.427665  0.016647  1
  O  O77  1  0.743754  0.023059  0.624630  1
  O  O78  1  0.609550  0.923536  0.902346  1
  O  O79  1  0.188257  0.250000  0.526665  1
  O  O80  1  0.875677  0.452751  0.479077  1
  O  O81  1  0.269679  0.750000  0.464582  1
  O  O82  1  0.730321  0.250000  0.535418  1
  O  O83  1  0.718534  0.103261  0.831041  1
  O  O84  1  0.065822  0.068743  0.700422  1
  O  O85  1  0.103238  0.572335  0.983353  1
  O  O86  1  0.561517  0.862896  0.425665  1
  O  O87  1  0.065822  0.431257  0.700422  1
  O  O88  1  0.256246  0.523059  0.375370  1
  O  O89  1  0.362881  0.250000  0.401584  1
  O  O90  1  0.897922  0.250000  0.769945  1
  O  O91  1  0.906619  0.250000  0.287351  1
  O  O92  1  0.107382  0.250000  0.988431  1
  O  O93  1  0.531210  0.750000  0.190630  1
  O  O94  1  0.934178  0.568743  0.299578  1
  O  O95  1  0.718534  0.396739  0.831041  1
