# generated using pymatgen
data_Ni3OF5
_symmetry_space_group_name_H-M   'P 1'
_cell_length_a   4.68969758
_cell_length_b   5.62289270
_cell_length_c   7.76212772
_cell_angle_alpha   93.75374570
_cell_angle_beta   90.00481755
_cell_angle_gamma   90.00101765
_symmetry_Int_Tables_number   1
_chemical_formula_structural   Ni3OF5
_chemical_formula_sum   'Ni6 O2 F10'
_cell_volume   204.24559524
_cell_formula_units_Z   2
loop_
 _symmetry_equiv_pos_site_id
 _symmetry_equiv_pos_as_xyz
  1  'x, y, z'
loop_
 _atom_site_type_symbol
 _atom_site_label
 _atom_site_symmetry_multiplicity
 _atom_site_fract_x
 _atom_site_fract_y
 _atom_site_fract_z
 _atom_site_occupancy
  Ni  Ni0  1  0.496674  0.492235  0.000309  1
  Ni  Ni1  1  0.503761  0.834943  0.330695  1
  Ni  Ni2  1  0.482043  0.171702  0.669585  1
  Ni  Ni3  1  0.006073  0.331175  0.340447  1
  Ni  Ni4  1  0.005833  0.661319  0.664802  1
  Ni  Ni5  1  0.008738  0.006013  0.995432  1
  O  O6  1  0.194586  0.369839  0.567174  1
  O  O7  1  0.303125  0.203931  0.898293  1
  F  F8  1  0.195822  0.034173  0.232540  1
  F  F9  1  0.197554  0.701554  0.898753  1
  F  F10  1  0.302613  0.536184  0.232436  1
  F  F11  1  0.303399  0.868509  0.564138  1
  F  F12  1  0.693106  0.132773  0.438014  1
  F  F13  1  0.699446  0.464334  0.768112  1
  F  F14  1  0.698071  0.797794  0.096121  1
  F  F15  1  0.802065  0.964406  0.764010  1
  F  F16  1  0.806305  0.297709  0.105671  1
  F  F17  1  0.800789  0.631406  0.433470  1
