# generated using pymatgen
data_Li3Co2(SiO4)2
_symmetry_space_group_name_H-M   'P 1'
_cell_length_a   5.22181249
_cell_length_b   11.05014224
_cell_length_c   6.12889980
_cell_angle_alpha   90.00000000
_cell_angle_beta   90.76200943
_cell_angle_gamma   90.00000000
_symmetry_Int_Tables_number   1
_chemical_formula_structural   Li3Co2(SiO4)2
_chemical_formula_sum   'Li6 Co4 Si4 O16'
_cell_volume   353.61709521
_cell_formula_units_Z   2
loop_
 _symmetry_equiv_pos_site_id
 _symmetry_equiv_pos_as_xyz
  1  'x, y, z'
loop_
 _atom_site_type_symbol
 _atom_site_label
 _atom_site_symmetry_multiplicity
 _atom_site_fract_x
 _atom_site_fract_y
 _atom_site_fract_z
 _atom_site_occupancy
  Li  Li0  1  0.549488  0.830228  0.256506  1
  Li  Li1  1  0.450512  0.330228  0.743494  1
  Li  Li2  1  0.953910  0.169489  0.758839  1
  Li  Li3  1  0.055280  0.670781  0.756393  1
  Li  Li4  1  0.046090  0.669489  0.241161  1
  Li  Li5  1  0.944720  0.170781  0.243607  1
  Co  Co6  1  0.439953  0.576441  0.500514  1
  Co  Co7  1  0.560047  0.076441  0.499486  1
  Co  Co8  1  0.077819  0.421979  0.014218  1
  Co  Co9  1  0.922181  0.921979  0.985782  1
  Si  Si10  1  0.063082  0.916826  0.495205  1
  Si  Si11  1  0.936918  0.416826  0.504795  1
  Si  Si12  1  0.564318  0.579920  0.995644  1
  Si  Si13  1  0.435682  0.079920  0.004356  1
  O  O14  1  0.955801  0.842290  0.277412  1
  O  O15  1  0.005100  0.342258  0.283407  1
  O  O16  1  0.379613  0.930102  0.472240  1
  O  O17  1  0.062406  0.556904  0.495648  1
  O  O18  1  0.937594  0.056904  0.504352  1
  O  O19  1  0.620387  0.430102  0.527760  1
  O  O20  1  0.994900  0.842258  0.716593  1
  O  O21  1  0.044199  0.342290  0.722588  1
  O  O22  1  0.536232  0.156312  0.782053  1
  O  O23  1  0.456222  0.653765  0.774976  1
  O  O24  1  0.443600  0.444217  0.996438  1
  O  O25  1  0.556400  0.944217  0.003562  1
  O  O26  1  0.882449  0.577232  0.998361  1
  O  O27  1  0.117551  0.077232  0.001639  1
  O  O28  1  0.463768  0.656312  0.217947  1
  O  O29  1  0.543778  0.153765  0.225024  1
