# generated using pymatgen
data_LiFe3OF5
_symmetry_space_group_name_H-M   'P 1'
_cell_length_a   6.18370011
_cell_length_b   6.24976434
_cell_length_c   6.27619224
_cell_angle_alpha   91.82180964
_cell_angle_beta   91.42005085
_cell_angle_gamma   91.54331559
_symmetry_Int_Tables_number   1
_chemical_formula_structural   LiFe3OF5
_chemical_formula_sum   'Li2 Fe6 O2 F10'
_cell_volume   242.26357498
_cell_formula_units_Z   2
loop_
 _symmetry_equiv_pos_site_id
 _symmetry_equiv_pos_as_xyz
  1  'x, y, z'
loop_
 _atom_site_type_symbol
 _atom_site_label
 _atom_site_symmetry_multiplicity
 _atom_site_fract_x
 _atom_site_fract_y
 _atom_site_fract_z
 _atom_site_occupancy
  Li  Li0  1  0.507386  0.492394  0.500527  1
  Li  Li1  1  0.997523  0.985166  0.986962  1
  Fe  Fe2  1  0.272202  0.087545  0.557842  1
  Fe  Fe3  1  0.939575  0.452592  0.760002  1
  Fe  Fe4  1  0.411719  0.732579  0.924109  1
  Fe  Fe5  1  0.563643  0.239387  0.096543  1
  Fe  Fe6  1  0.067034  0.576677  0.236187  1
  Fe  Fe7  1  0.742871  0.946923  0.434996  1
  O  O8  1  0.092244  0.675011  0.936291  1
  O  O9  1  0.536028  0.177795  0.404206  1
  F  F10  1  0.312109  0.086840  0.905526  1
  F  F11  1  0.934967  0.104448  0.688516  1
  F  F12  1  0.602696  0.441708  0.823140  1
  F  F13  1  0.173704  0.418182  0.520521  1
  F  F14  1  0.813866  0.617620  0.457288  1
  F  F15  1  0.454546  0.799286  0.602238  1
  F  F16  1  0.910835  0.294029  0.088905  1
  F  F17  1  0.417735  0.542867  0.200233  1
  F  F18  1  0.067824  0.927884  0.321655  1
  F  F19  1  0.681495  0.901067  0.054312  1
