# generated using pymatgen
data_Li2MnVP2(O4F)2
_symmetry_space_group_name_H-M   'P 1'
_cell_length_a   5.23843948
_cell_length_b   10.35259939
_cell_length_c   10.52536673
_cell_angle_alpha   78.74842610
_cell_angle_beta   83.84584472
_cell_angle_gamma   80.28991554
_symmetry_Int_Tables_number   1
_chemical_formula_structural   Li2MnVP2(O4F)2
_chemical_formula_sum   'Li6 Mn3 V3 P6 O24 F6'
_cell_volume   550.18283735
_cell_formula_units_Z   3
loop_
 _symmetry_equiv_pos_site_id
 _symmetry_equiv_pos_as_xyz
  1  'x, y, z'
loop_
 _atom_site_type_symbol
 _atom_site_label
 _atom_site_symmetry_multiplicity
 _atom_site_fract_x
 _atom_site_fract_y
 _atom_site_fract_z
 _atom_site_occupancy
  Li  Li0  1  0.661435  0.749407  0.565315  1
  Li  Li1  1  0.338565  0.250593  0.434685  1
  Li  Li2  1  0.997995  0.578236  0.765819  1
  Li  Li3  1  0.331900  0.085928  0.898062  1
  Li  Li4  1  0.002005  0.421764  0.234181  1
  Li  Li5  1  0.668100  0.914072  0.101938  1
  Mn  Mn6  1  0.165012  0.833001  0.334758  1
  Mn  Mn7  1  0.000000  0.500000  0.500000  1
  Mn  Mn8  1  0.834988  0.166999  0.665242  1
  V  V9  1  0.662613  0.832057  0.834577  1
  V  V10  1  0.500000  0.500000  0.000000  1
  V  V11  1  0.337387  0.167943  0.165423  1
  P  P12  1  0.479308  0.460166  0.697441  1
  P  P13  1  0.520692  0.539834  0.302559  1
  P  P14  1  0.148774  0.795486  0.034713  1
  P  P15  1  0.177736  0.870940  0.634333  1
  P  P16  1  0.822264  0.129060  0.365667  1
  P  P17  1  0.851226  0.204514  0.965287  1
  O  O18  1  0.403353  0.806682  0.721619  1
  O  O19  1  0.643462  0.510310  0.168097  1
  O  O20  1  0.547797  0.309890  0.697911  1
  O  O21  1  0.452203  0.690110  0.302089  1
  O  O22  1  0.596647  0.193318  0.278381  1
  O  O23  1  0.611084  0.131439  0.012958  1
  O  O24  1  0.255281  0.527077  0.607590  1
  O  O25  1  0.283429  0.464508  0.346070  1
  O  O26  1  0.356538  0.489690  0.831903  1
  O  O27  1  0.215791  0.645019  0.036234  1
  O  O28  1  0.302465  0.839984  0.499607  1
  O  O29  1  0.938269  0.797030  0.681472  1
  O  O30  1  0.388916  0.868561  0.987042  1
  O  O31  1  0.027272  0.827138  0.169398  1
  O  O32  1  0.112055  0.021462  0.633456  1
  O  O33  1  0.972728  0.172862  0.830602  1
  O  O34  1  0.061731  0.202970  0.318528  1
  O  O35  1  0.077132  0.142194  0.052575  1
  O  O36  1  0.716571  0.535492  0.653930  1
  O  O37  1  0.744719  0.472923  0.392410  1
  O  O38  1  0.887945  0.978538  0.366544  1
  O  O39  1  0.784209  0.354981  0.963766  1
  O  O40  1  0.697535  0.160016  0.500393  1
  O  O41  1  0.922868  0.857806  0.947425  1
  F  F42  1  0.591763  0.026397  0.772576  1
  F  F43  1  0.408237  0.973603  0.227424  1
  F  F44  1  0.267644  0.365932  0.103762  1
  F  F45  1  0.077230  0.302666  0.561801  1
  F  F46  1  0.922770  0.697334  0.438199  1
  F  F47  1  0.732356  0.634068  0.896238  1
