# generated using pymatgen
data_Ho(ClO4)3
_symmetry_space_group_name_H-M   'P 1'
_cell_length_a   9.45682045
_cell_length_b   9.45682045
_cell_length_c   9.45682045
_cell_angle_alpha   51.73889753
_cell_angle_beta   51.73889753
_cell_angle_gamma   51.73889753
_symmetry_Int_Tables_number   1
_chemical_formula_structural   Ho(ClO4)3
_chemical_formula_sum   'Ho2 Cl6 O24'
_cell_volume   481.78976747
_cell_formula_units_Z   2
loop_
 _symmetry_equiv_pos_site_id
 _symmetry_equiv_pos_as_xyz
  1  'x, y, z'
loop_
 _atom_site_type_symbol
 _atom_site_label
 _atom_site_symmetry_multiplicity
 _atom_site_fract_x
 _atom_site_fract_y
 _atom_site_fract_z
 _atom_site_occupancy
  Ho  Ho0  1  0.941882  0.941882  0.941882  1
  Ho  Ho1  1  0.441882  0.441882  0.441882  1
  Cl  Cl2  1  0.033853  0.310489  0.654866  1
  Cl  Cl3  1  0.154866  0.810489  0.533853  1
  Cl  Cl4  1  0.533853  0.154866  0.810489  1
  Cl  Cl5  1  0.310489  0.654866  0.033853  1
  Cl  Cl6  1  0.654866  0.033853  0.310489  1
  Cl  Cl7  1  0.810489  0.533853  0.154866  1
  O  O8  1  0.246824  0.869122  0.923660  1
  O  O9  1  0.114505  0.797583  0.718322  1
  O  O10  1  0.425702  0.052244  0.000137  1
  O  O11  1  0.081807  0.158985  0.607506  1
  O  O12  1  0.107506  0.658985  0.581807  1
  O  O13  1  0.500137  0.552244  0.925702  1
  O  O14  1  0.218322  0.297583  0.614505  1
  O  O15  1  0.052244  0.000137  0.425702  1
  O  O16  1  0.423660  0.369122  0.746824  1
  O  O17  1  0.718322  0.114505  0.797583  1
  O  O18  1  0.581807  0.107506  0.658985  1
  O  O19  1  0.369122  0.746824  0.423660  1
  O  O20  1  0.552244  0.925702  0.500137  1
  O  O21  1  0.923660  0.246824  0.869122  1
  O  O22  1  0.158985  0.607506  0.081807  1
  O  O23  1  0.297583  0.614505  0.218322  1
  O  O24  1  0.614505  0.218322  0.297583  1
  O  O25  1  0.925702  0.500137  0.552244  1
  O  O26  1  0.746824  0.423660  0.369122  1
  O  O27  1  0.607506  0.081807  0.158985  1
  O  O28  1  0.658985  0.581807  0.107506  1
  O  O29  1  0.869122  0.923660  0.246824  1
  O  O30  1  0.797583  0.718322  0.114505  1
  O  O31  1  0.000137  0.425702  0.052244  1
