# generated using pymatgen
data_NaMnP2H10NO10
_symmetry_space_group_name_H-M   'P 1'
_cell_length_a   9.66154739
_cell_length_b   9.66154739
_cell_length_c   5.62877438
_cell_angle_alpha   82.64433436
_cell_angle_beta   97.35566564
_cell_angle_gamma   63.58290810
_symmetry_Int_Tables_number   1
_chemical_formula_structural   NaMnP2H10NO10
_chemical_formula_sum   'Na2 Mn2 P4 H20 N2 O20'
_cell_volume   456.44956379
_cell_formula_units_Z   2
loop_
 _symmetry_equiv_pos_site_id
 _symmetry_equiv_pos_as_xyz
  1  'x, y, z'
loop_
 _atom_site_type_symbol
 _atom_site_label
 _atom_site_symmetry_multiplicity
 _atom_site_fract_x
 _atom_site_fract_y
 _atom_site_fract_z
 _atom_site_occupancy
  Na  Na0  1  0.220790  0.901321  0.348556  1
  Na  Na1  1  0.098679  0.779210  0.848556  1
  Mn  Mn2  1  0.450410  0.059723  0.119904  1
  Mn  Mn3  1  0.940277  0.549590  0.619904  1
  P  P4  1  0.719702  0.706540  0.039991  1
  P  P5  1  0.860649  0.886870  0.249685  1
  P  P6  1  0.293460  0.280298  0.539991  1
  P  P7  1  0.113130  0.139351  0.749685  1
  H  H8  1  0.923575  0.153044  0.202482  1
  H  H9  1  0.846956  0.076425  0.702482  1
  H  H10  1  0.894160  0.320488  0.015730  1
  H  H11  1  0.901059  0.313682  0.321694  1
  H  H12  1  0.679512  0.105840  0.515730  1
  H  H13  1  0.744807  0.316792  0.145440  1
  H  H14  1  0.686318  0.098941  0.821694  1
  H  H15  1  0.683208  0.255193  0.645440  1
  H  H16  1  0.483880  0.343160  0.218845  1
  H  H17  1  0.656840  0.516120  0.718845  1
  H  H18  1  0.610436  0.515546  0.448164  1
  H  H19  1  0.484454  0.389564  0.948164  1
  H  H20  1  0.409142  0.610482  0.092451  1
  H  H21  1  0.574484  0.774834  0.429982  1
  H  H22  1  0.389518  0.590858  0.592451  1
  H  H23  1  0.122039  0.492528  0.125156  1
  H  H24  1  0.391334  0.779946  0.004508  1
  H  H25  1  0.225166  0.425516  0.929982  1
  H  H26  1  0.507472  0.877961  0.625156  1
  H  H27  1  0.220054  0.608666  0.504508  1
  N  N28  1  0.866646  0.276308  0.171636  1
  N  N29  1  0.723692  0.133354  0.671636  1
  O  O30  1  0.692207  0.025740  0.212919  1
  O  O31  1  0.974260  0.307793  0.712919  1
  O  O32  1  0.218721  0.079959  0.006747  1
  O  O33  1  0.523803  0.401275  0.110514  1
  O  O34  1  0.402173  0.233104  0.356487  1
  O  O35  1  0.846135  0.775306  0.056497  1
  O  O36  1  0.737920  0.618660  0.300190  1
  O  O37  1  0.920041  0.781279  0.506747  1
  O  O38  1  0.973738  0.939990  0.158614  1
  O  O39  1  0.598725  0.476197  0.610514  1
  O  O40  1  0.766896  0.597827  0.856487  1
  O  O41  1  0.224694  0.153865  0.556497  1
  O  O42  1  0.381340  0.262080  0.800190  1
  O  O43  1  0.060010  0.026262  0.658614  1
  O  O44  1  0.341317  0.724028  0.085982  1
  O  O45  1  0.150704  0.446543  0.443806  1
  O  O46  1  0.484983  0.872604  0.449133  1
  O  O47  1  0.275972  0.658683  0.585982  1
  O  O48  1  0.553457  0.849296  0.943806  1
  O  O49  1  0.127396  0.515017  0.949133  1
