# generated using pymatgen
data_Li2VP3O10
_symmetry_space_group_name_H-M   'P 1'
_cell_length_a   8.01799800
_cell_length_b   8.01799800
_cell_length_c   9.71503275
_cell_angle_alpha   57.47247125
_cell_angle_beta   122.52752875
_cell_angle_gamma   126.80293713
_symmetry_Int_Tables_number   1
_chemical_formula_structural   Li2VP3O10
_chemical_formula_sum   'Li4 V2 P6 O20'
_cell_volume   399.56383778
_cell_formula_units_Z   2
loop_
 _symmetry_equiv_pos_site_id
 _symmetry_equiv_pos_as_xyz
  1  'x, y, z'
loop_
 _atom_site_type_symbol
 _atom_site_label
 _atom_site_symmetry_multiplicity
 _atom_site_fract_x
 _atom_site_fract_y
 _atom_site_fract_z
 _atom_site_occupancy
  Li  Li0  1  0.715477  0.255781  0.037324  1
  Li  Li1  1  0.744219  0.284523  0.537324  1
  Li  Li2  1  0.255781  0.715477  0.462676  1
  Li  Li3  1  0.284523  0.744219  0.962676  1
  V  V4  1  0.334124  0.334124  0.250000  1
  V  V5  1  0.665876  0.665876  0.750000  1
  P  P6  1  0.802678  0.559495  0.185969  1
  P  P7  1  0.440505  0.197322  0.685969  1
  P  P8  1  0.950863  0.950863  0.250000  1
  P  P9  1  0.049137  0.049137  0.750000  1
  P  P10  1  0.559495  0.802678  0.314031  1
  P  P11  1  0.197322  0.440505  0.814031  1
  O  O12  1  0.973223  0.185322  0.153325  1
  O  O13  1  0.814678  0.026777  0.653325  1
  O  O14  1  0.552098  0.016508  0.189030  1
  O  O15  1  0.723022  0.530109  0.015216  1
  O  O16  1  0.625068  0.394141  0.279100  1
  O  O17  1  0.983492  0.447902  0.689030  1
  O  O18  1  0.821343  0.808055  0.126356  1
  O  O19  1  0.469891  0.276978  0.515216  1
  O  O20  1  0.605859  0.374932  0.779100  1
  O  O21  1  0.808055  0.821343  0.373644  1
  O  O22  1  0.191945  0.178657  0.626356  1
  O  O23  1  0.394141  0.625068  0.220900  1
  O  O24  1  0.530109  0.723022  0.484784  1
  O  O25  1  0.178657  0.191945  0.873644  1
  O  O26  1  0.016508  0.552098  0.310970  1
  O  O27  1  0.374932  0.605859  0.720900  1
  O  O28  1  0.276978  0.469891  0.984784  1
  O  O29  1  0.447902  0.983492  0.810970  1
  O  O30  1  0.185322  0.973223  0.346675  1
  O  O31  1  0.026777  0.814678  0.846675  1
