# generated using pymatgen
data_NaLi5Mn2P2(CO7)2
_symmetry_space_group_name_H-M   'P 1'
_cell_length_a   5.01175455
_cell_length_b   8.65484661
_cell_length_c   13.30711639
_cell_angle_alpha   90.66802352
_cell_angle_beta   90.08111142
_cell_angle_gamma   92.20772744
_symmetry_Int_Tables_number   1
_chemical_formula_structural   NaLi5Mn2P2(CO7)2
_chemical_formula_sum   'Na2 Li10 Mn4 P4 C4 O28'
_cell_volume   576.74038773
_cell_formula_units_Z   2
loop_
 _symmetry_equiv_pos_site_id
 _symmetry_equiv_pos_as_xyz
  1  'x, y, z'
loop_
 _atom_site_type_symbol
 _atom_site_label
 _atom_site_symmetry_multiplicity
 _atom_site_fract_x
 _atom_site_fract_y
 _atom_site_fract_z
 _atom_site_occupancy
  Na  Na0  1  0.751889  0.912050  0.376575  1
  Na  Na1  1  0.252791  0.752977  0.999319  1
  Li  Li2  1  0.746191  0.916353  0.864043  1
  Li  Li3  1  0.229140  0.729734  0.761758  1
  Li  Li4  1  0.224238  0.733234  0.488983  1
  Li  Li5  1  0.223137  0.727648  0.267722  1
  Li  Li6  1  0.770878  0.267782  0.734949  1
  Li  Li7  1  0.774571  0.264197  0.512151  1
  Li  Li8  1  0.772773  0.264364  0.240080  1
  Li  Li9  1  0.770549  0.265566  0.013199  1
  Li  Li10  1  0.257675  0.089902  0.131848  1
  Li  Li11  1  0.258441  0.085070  0.626623  1
  Mn  Mn12  1  0.773857  0.646229  0.626654  1
  Mn  Mn13  1  0.772510  0.643350  0.126238  1
  Mn  Mn14  1  0.223154  0.353070  0.874514  1
  Mn  Mn15  1  0.229000  0.351326  0.375486  1
  P  P16  1  0.712253  0.583495  0.375524  1
  P  P17  1  0.707445  0.591155  0.872656  1
  P  P18  1  0.287241  0.409009  0.626047  1
  P  P19  1  0.286512  0.406600  0.126310  1
  C  C20  1  0.726959  0.960439  0.622603  1
  C  C21  1  0.731172  0.960945  0.127749  1
  C  C22  1  0.265978  0.046739  0.375674  1
  C  C23  1  0.279476  0.042902  0.868387  1
  O  O24  1  0.347283  0.900123  0.858688  1
  O  O25  1  0.278312  0.896278  0.376427  1
  O  O26  1  0.977925  0.921317  0.126057  1
  O  O27  1  0.974547  0.921322  0.622462  1
  O  O28  1  0.539485  0.855542  0.132772  1
  O  O29  1  0.536092  0.853795  0.620296  1
  O  O30  1  0.782621  0.686332  0.968991  1
  O  O31  1  0.828067  0.689082  0.784878  1
  O  O32  1  0.824880  0.673595  0.468682  1
  O  O33  1  0.819420  0.675666  0.283689  1
  O  O34  1  0.396958  0.579324  0.861708  1
  O  O35  1  0.399055  0.584194  0.376466  1
  O  O36  1  0.195751  0.578974  0.627203  1
  O  O37  1  0.192436  0.575395  0.132914  1
  O  O38  1  0.808291  0.423518  0.874561  1
  O  O39  1  0.796325  0.412822  0.373095  1
  O  O40  1  0.600519  0.415796  0.627155  1
  O  O41  1  0.599297  0.414262  0.123835  1
  O  O42  1  0.178227  0.311966  0.715772  1
  O  O43  1  0.183151  0.315981  0.532594  1
  O  O44  1  0.188372  0.306945  0.216543  1
  O  O45  1  0.174462  0.316921  0.032816  1
  O  O46  1  0.468088  0.150809  0.874810  1
  O  O47  1  0.482190  0.134335  0.375598  1
  O  O48  1  0.030592  0.078976  0.872004  1
  O  O49  1  0.037050  0.111487  0.374879  1
  O  O50  1  0.668614  0.105919  0.125220  1
  O  O51  1  0.664161  0.105190  0.624790  1
