# generated using pymatgen
data_Li4Ti3Mn2Fe3O16
_symmetry_space_group_name_H-M   'P 1'
_cell_length_a   5.96919012
_cell_length_b   5.96919012
_cell_length_c   9.59785045
_cell_angle_alpha   88.18364945
_cell_angle_beta   91.81635055
_cell_angle_gamma   120.68949483
_symmetry_Int_Tables_number   1
_chemical_formula_structural   Li4Ti3Mn2Fe3O16
_chemical_formula_sum   'Li4 Ti3 Mn2 Fe3 O16'
_cell_volume   293.89138142
_cell_formula_units_Z   1
loop_
 _symmetry_equiv_pos_site_id
 _symmetry_equiv_pos_as_xyz
  1  'x, y, z'
loop_
 _atom_site_type_symbol
 _atom_site_label
 _atom_site_symmetry_multiplicity
 _atom_site_fract_x
 _atom_site_fract_y
 _atom_site_fract_z
 _atom_site_occupancy
  Li  Li0  1  0.667768  0.332232  0.892574  1
  Li  Li1  1  0.988185  0.011815  0.988890  1
  Li  Li2  1  0.997470  0.002530  0.498291  1
  Li  Li3  1  0.334012  0.665988  0.399695  1
  Ti  Ti4  1  0.331670  0.168651  0.213827  1
  Ti  Ti5  1  0.831349  0.668330  0.213827  1
  Ti  Ti6  1  0.176936  0.823064  0.715937  1
  Mn  Mn7  1  0.669314  0.330686  0.486189  1
  Mn  Mn8  1  0.337657  0.662343  0.982903  1
  Fe  Fe9  1  0.827303  0.172697  0.214494  1
  Fe  Fe10  1  0.181044  0.337363  0.710151  1
  Fe  Fe11  1  0.662637  0.818956  0.710151  1
  O  O12  1  0.341705  0.162709  0.596088  1
  O  O13  1  0.521002  0.478998  0.341921  1
  O  O14  1  0.655686  0.344314  0.105951  1
  O  O15  1  0.999933  0.000067  0.312784  1
  O  O16  1  0.009648  0.990352  0.802483  1
  O  O17  1  0.837291  0.658295  0.596088  1
  O  O18  1  0.515053  0.045467  0.343983  1
  O  O19  1  0.954533  0.484947  0.343983  1
  O  O20  1  0.153803  0.846197  0.111318  1
  O  O21  1  0.833236  0.166764  0.595265  1
  O  O22  1  0.045404  0.521823  0.843819  1
  O  O23  1  0.478177  0.954596  0.843819  1
  O  O24  1  0.326257  0.673743  0.601599  1
  O  O25  1  0.166017  0.333165  0.103956  1
  O  O26  1  0.489609  0.510391  0.833895  1
  O  O27  1  0.666835  0.833983  0.103956  1
