# generated using pymatgen
data_LiFeSi3O8
_symmetry_space_group_name_H-M   'P 1'
_cell_length_a   7.78504530
_cell_length_b   7.78504530
_cell_length_c   7.29239617
_cell_angle_alpha   76.13845359
_cell_angle_beta   103.86154641
_cell_angle_gamma   63.61221859
_symmetry_Int_Tables_number   1
_chemical_formula_structural   LiFeSi3O8
_chemical_formula_sum   'Li2 Fe2 Si6 O16'
_cell_volume   352.65091541
_cell_formula_units_Z   2
loop_
 _symmetry_equiv_pos_site_id
 _symmetry_equiv_pos_as_xyz
  1  'x, y, z'
loop_
 _atom_site_type_symbol
 _atom_site_label
 _atom_site_symmetry_multiplicity
 _atom_site_fract_x
 _atom_site_fract_y
 _atom_site_fract_z
 _atom_site_occupancy
  Li  Li0  1  0.246672  0.634245  0.162730  1
  Li  Li1  1  0.634245  0.246672  0.837270  1
  Fe  Fe2  1  0.211496  0.564688  0.663098  1
  Fe  Fe3  1  0.564688  0.211496  0.336902  1
  Si  Si4  1  0.432054  0.805967  0.662190  1
  Si  Si5  1  0.180566  0.167169  0.785215  1
  Si  Si6  1  0.818302  0.849138  0.777339  1
  Si  Si7  1  0.849138  0.818302  0.222661  1
  Si  Si8  1  0.167169  0.180566  0.214785  1
  Si  Si9  1  0.805967  0.432054  0.337810  1
  O  O10  1  0.307453  0.932346  0.786304  1
  O  O11  1  0.047604  0.692933  0.791459  1
  O  O12  1  0.093114  0.698158  0.376584  1
  O  O13  1  0.307619  0.951909  0.412361  1
  O  O14  1  0.455268  0.577917  0.723590  1
  O  O15  1  0.317368  0.275475  0.767614  1
  O  O16  1  0.670759  0.754948  0.736047  1
  O  O17  1  0.754948  0.670759  0.263953  1
  O  O18  1  0.275475  0.317368  0.232386  1
  O  O19  1  0.866817  0.866817  0.000000  1
  O  O20  1  0.140015  0.140015  0.000000  1
  O  O21  1  0.577917  0.455268  0.276410  1
  O  O22  1  0.698158  0.093114  0.623416  1
  O  O23  1  0.951909  0.307619  0.587639  1
  O  O24  1  0.692933  0.047604  0.208541  1
  O  O25  1  0.932346  0.307453  0.213696  1
