# generated using pymatgen
data_Li2BiS2
_symmetry_space_group_name_H-M   'P 1'
_cell_length_a   7.28617009
_cell_length_b   7.28617009
_cell_length_c   7.28617009
_cell_angle_alpha   148.01162255
_cell_angle_beta   147.52384528
_cell_angle_gamma   46.22957211
_symmetry_Int_Tables_number   1
_chemical_formula_structural   Li2BiS2
_chemical_formula_sum   'Li2 Bi1 S2'
_cell_volume   109.64293208
_cell_formula_units_Z   1
loop_
 _symmetry_equiv_pos_site_id
 _symmetry_equiv_pos_as_xyz
  1  'x, y, z'
loop_
 _atom_site_type_symbol
 _atom_site_label
 _atom_site_symmetry_multiplicity
 _atom_site_fract_x
 _atom_site_fract_y
 _atom_site_fract_z
 _atom_site_occupancy
  Li  Li0  1  0.260486  0.263777  0.003291  1
  Li  Li1  1  0.739514  0.742804  0.003291  1
  Bi  Bi2  1  0.000000  0.016309  0.016309  1
  S  S3  1  0.851853  0.364704  0.512851  1
  S  S4  1  0.148147  0.660997  0.512851  1
