# generated using pymatgen
data_Li4Mn3NbO8
_symmetry_space_group_name_H-M   'P 1'
_cell_length_a   6.09550537
_cell_length_b   6.09550537
_cell_length_c   6.09550537
_cell_angle_alpha   61.35180445
_cell_angle_beta   61.35180445
_cell_angle_gamma   61.35180445
_symmetry_Int_Tables_number   1
_chemical_formula_structural   Li4Mn3NbO8
_chemical_formula_sum   'Li4 Mn3 Nb1 O8'
_cell_volume   165.00984402
_cell_formula_units_Z   1
loop_
 _symmetry_equiv_pos_site_id
 _symmetry_equiv_pos_as_xyz
  1  'x, y, z'
loop_
 _atom_site_type_symbol
 _atom_site_label
 _atom_site_symmetry_multiplicity
 _atom_site_fract_x
 _atom_site_fract_y
 _atom_site_fract_z
 _atom_site_occupancy
  Li  Li0  1  0.503717  0.503717  0.503717  1
  Li  Li1  1  0.006247  0.006247  0.494908  1
  Li  Li2  1  0.006247  0.494908  0.006247  1
  Li  Li3  1  0.505092  0.993753  0.993753  1
  Mn  Mn4  1  0.500000  0.500000  0.000000  1
  Mn  Mn5  1  0.500000  0.000000  0.500000  1
  Mn  Mn6  1  0.000000  0.500000  0.500000  1
  Nb  Nb7  1  0.000000  1.000000  0.000000  1
  O  O8  1  0.737963  0.737963  0.737963  1
  O  O9  1  0.236243  0.236243  0.773253  1
  O  O10  1  0.236243  0.773253  0.236243  1
  O  O11  1  0.262037  0.262037  0.262037  1
  O  O12  1  0.773253  0.236243  0.236243  1
  O  O13  1  0.763757  0.763757  0.226747  1
  O  O14  1  0.763757  0.226747  0.763757  1
  O  O15  1  0.226747  0.763757  0.763757  1
