# generated using pymatgen
data_Mn5Ni(PO4)6
_symmetry_space_group_name_H-M   'P 1'
_cell_length_a   8.58513909
_cell_length_b   8.58513909
_cell_length_c   8.58513909
_cell_angle_alpha   59.83477605
_cell_angle_beta   59.83477605
_cell_angle_gamma   59.83477605
_symmetry_Int_Tables_number   1
_chemical_formula_structural   Mn5Ni(PO4)6
_chemical_formula_sum   'Mn5 Ni1 P6 O24'
_cell_volume   445.75413529
_cell_formula_units_Z   1
loop_
 _symmetry_equiv_pos_site_id
 _symmetry_equiv_pos_as_xyz
  1  'x, y, z'
loop_
 _atom_site_type_symbol
 _atom_site_label
 _atom_site_symmetry_multiplicity
 _atom_site_fract_x
 _atom_site_fract_y
 _atom_site_fract_z
 _atom_site_occupancy
  Mn  Mn0  1  0.003507  0.003507  0.003507  1
  Mn  Mn1  1  0.643134  0.643134  0.643134  1
  Mn  Mn2  1  0.500755  0.500755  0.500755  1
  Mn  Mn3  1  0.856889  0.856889  0.856889  1
  Mn  Mn4  1  0.356291  0.356291  0.356291  1
  Ni  Ni5  1  0.142867  0.142867  0.142867  1
  P  P6  1  0.249050  0.540537  0.960150  1
  P  P7  1  0.960150  0.249050  0.540537  1
  P  P8  1  0.540537  0.960150  0.249050  1
  P  P9  1  0.460489  0.037097  0.748507  1
  P  P10  1  0.037097  0.748507  0.460489  1
  P  P11  1  0.748507  0.460489  0.037097  1
  O  O12  1  0.122134  0.302593  0.511281  1
  O  O13  1  0.511281  0.122134  0.302593  1
  O  O14  1  0.302593  0.511281  0.122134  1
  O  O15  1  0.084005  0.741376  0.942696  1
  O  O16  1  0.196286  0.386967  0.983606  1
  O  O17  1  0.419246  0.562420  0.762431  1
  O  O18  1  0.942696  0.084005  0.741376  1
  O  O19  1  0.762431  0.419246  0.562420  1
  O  O20  1  0.621085  0.008909  0.802693  1
  O  O21  1  0.562420  0.762431  0.419246  1
  O  O22  1  0.265549  0.054770  0.908023  1
  O  O23  1  0.008909  0.802693  0.621085  1
  O  O24  1  0.983606  0.196286  0.386967  1
  O  O25  1  0.741376  0.942696  0.084005  1
  O  O26  1  0.449502  0.233826  0.577143  1
  O  O27  1  0.386967  0.983606  0.196286  1
  O  O28  1  0.233826  0.577143  0.449502  1
  O  O29  1  0.054770  0.908023  0.265549  1
  O  O30  1  0.577143  0.449502  0.233826  1
  O  O31  1  0.802693  0.621085  0.008909  1
  O  O32  1  0.908023  0.265549  0.054770  1
  O  O33  1  0.689716  0.498846  0.875622  1
  O  O34  1  0.498846  0.875622  0.689716  1
  O  O35  1  0.875622  0.689716  0.498846  1
