# generated using pymatgen
data_BePO4
_symmetry_space_group_name_H-M   'P 1'
_cell_length_a   5.02192843
_cell_length_b   5.02192843
_cell_length_c   5.02192843
_cell_angle_alpha   123.22133691
_cell_angle_beta   123.22133691
_cell_angle_gamma   84.50553506
_symmetry_Int_Tables_number   1
_chemical_formula_structural   BePO4
_chemical_formula_sum   'Be1 P1 O4'
_cell_volume   84.76975590
_cell_formula_units_Z   1
loop_
 _symmetry_equiv_pos_site_id
 _symmetry_equiv_pos_as_xyz
  1  'x, y, z'
loop_
 _atom_site_type_symbol
 _atom_site_label
 _atom_site_symmetry_multiplicity
 _atom_site_fract_x
 _atom_site_fract_y
 _atom_site_fract_z
 _atom_site_occupancy
  Be  Be0  1  0.750000  0.250000  0.500000  1
  P  P1  1  0.000000  0.000000  0.000000  1
  O  O2  1  0.969548  0.635248  0.846657  1
  O  O3  1  0.877109  0.030452  0.665699  1
  O  O4  1  0.364752  0.211409  0.334301  1
  O  O5  1  0.788591  0.122891  0.153343  1
