# generated using pymatgen
data_TbSmO3
_symmetry_space_group_name_H-M   'P 1'
_cell_length_a   5.82907934
_cell_length_b   6.07813019
_cell_length_c   8.50776506
_cell_angle_alpha   90.00000000
_cell_angle_beta   90.00000000
_cell_angle_gamma   90.00000000
_symmetry_Int_Tables_number   1
_chemical_formula_structural   TbSmO3
_chemical_formula_sum   'Tb4 Sm4 O12'
_cell_volume   301.42929181
_cell_formula_units_Z   4
loop_
 _symmetry_equiv_pos_site_id
 _symmetry_equiv_pos_as_xyz
  1  'x, y, z'
loop_
 _atom_site_type_symbol
 _atom_site_label
 _atom_site_symmetry_multiplicity
 _atom_site_fract_x
 _atom_site_fract_y
 _atom_site_fract_z
 _atom_site_occupancy
  Tb  Tb0  1  0.500000  0.000000  0.000000  1
  Tb  Tb1  1  0.500000  0.000000  0.500000  1
  Tb  Tb2  1  0.000000  0.500000  0.000000  1
  Tb  Tb3  1  0.000000  0.500000  0.500000  1
  Sm  Sm4  1  0.987722  0.049453  0.250000  1
  Sm  Sm5  1  0.487722  0.450547  0.750000  1
  Sm  Sm6  1  0.512278  0.549453  0.250000  1
  Sm  Sm7  1  0.012278  0.950547  0.750000  1
  O  O8  1  0.643889  0.079113  0.750000  1
  O  O9  1  0.180658  0.183976  0.573605  1
  O  O10  1  0.180658  0.183976  0.926395  1
  O  O11  1  0.680658  0.316024  0.426395  1
  O  O12  1  0.680658  0.316024  0.073605  1
  O  O13  1  0.143889  0.420887  0.250000  1
  O  O14  1  0.856111  0.579113  0.750000  1
  O  O15  1  0.319342  0.683976  0.926395  1
  O  O16  1  0.319342  0.683976  0.573605  1
  O  O17  1  0.819342  0.816024  0.073605  1
  O  O18  1  0.819342  0.816024  0.426395  1
  O  O19  1  0.356111  0.920887  0.250000  1
