# generated using pymatgen
data_Li5Mn3Cr2O10
_symmetry_space_group_name_H-M   'P 1'
_cell_length_a   5.20124467
_cell_length_b   5.21127824
_cell_length_c   7.78003594
_cell_angle_alpha   103.64218507
_cell_angle_beta   108.13580033
_cell_angle_gamma   99.65086045
_symmetry_Int_Tables_number   1
_chemical_formula_structural   Li5Mn3Cr2O10
_chemical_formula_sum   'Li5 Mn3 Cr2 O10'
_cell_volume   187.99735502
_cell_formula_units_Z   1
loop_
 _symmetry_equiv_pos_site_id
 _symmetry_equiv_pos_as_xyz
  1  'x, y, z'
loop_
 _atom_site_type_symbol
 _atom_site_label
 _atom_site_symmetry_multiplicity
 _atom_site_fract_x
 _atom_site_fract_y
 _atom_site_fract_z
 _atom_site_occupancy
  Li  Li0  1  0.076458  0.803943  0.582816  1
  Li  Li1  1  0.725252  0.610445  0.224269  1
  Li  Li2  1  0.501639  0.498419  0.500008  1
  Li  Li3  1  0.930029  0.213239  0.421705  1
  Li  Li4  1  0.280801  0.391771  0.778324  1
  Mn  Mn5  1  0.501639  0.997806  0.000343  1
  Mn  Mn6  1  0.106280  0.302478  0.104897  1
  Mn  Mn7  1  0.896392  0.693159  0.894895  1
  Cr  Cr8  1  0.303989  0.897233  0.306670  1
  Cr  Cr9  1  0.698351  0.099533  0.693566  1
  O  O10  1  0.913103  0.923533  0.144052  1
  O  O11  1  0.684989  0.866805  0.449880  1
  O  O12  1  0.287209  0.673777  0.040909  1
  O  O13  1  0.533413  0.767788  0.769590  1
  O  O14  1  0.115854  0.546720  0.336162  1
  O  O15  1  0.886576  0.449618  0.664100  1
  O  O16  1  0.468520  0.228076  0.230430  1
  O  O17  1  0.716074  0.321516  0.959572  1
  O  O18  1  0.318212  0.132761  0.550326  1
  O  O19  1  0.089368  0.071113  0.854785  1
