# generated using pymatgen
data_Li2MnP2O7
_symmetry_space_group_name_H-M   'P 1'
_cell_length_a   7.74509034
_cell_length_b   7.74509034
_cell_length_c   8.00886616
_cell_angle_alpha   64.94633033
_cell_angle_beta   115.05366967
_cell_angle_gamma   137.07484625
_symmetry_Int_Tables_number   1
_chemical_formula_structural   Li2MnP2O7
_chemical_formula_sum   'Li4 Mn2 P4 O14'
_cell_volume   291.35537665
_cell_formula_units_Z   2
loop_
 _symmetry_equiv_pos_site_id
 _symmetry_equiv_pos_as_xyz
  1  'x, y, z'
loop_
 _atom_site_type_symbol
 _atom_site_label
 _atom_site_symmetry_multiplicity
 _atom_site_fract_x
 _atom_site_fract_y
 _atom_site_fract_z
 _atom_site_occupancy
  Li  Li0  1  0.925882  0.379084  0.192609  1
  Li  Li1  1  0.379084  0.925882  0.307391  1
  Li  Li2  1  0.620916  0.074118  0.692609  1
  Li  Li3  1  0.074118  0.620916  0.807391  1
  Mn  Mn4  1  0.000000  1.000000  0.500000  1
  Mn  Mn5  1  0.000000  0.000000  0.000000  1
  P  P6  1  0.523716  0.752525  0.142489  1
  P  P7  1  0.247475  0.476284  0.642489  1
  P  P8  1  0.752525  0.523716  0.357511  1
  P  P9  1  0.476284  0.247475  0.857511  1
  O  O10  1  0.692979  0.938949  0.282007  1
  O  O11  1  0.248252  0.635724  0.086498  1
  O  O12  1  0.118037  0.347332  0.473128  1
  O  O13  1  0.061051  0.307021  0.782007  1
  O  O14  1  0.364276  0.751748  0.586498  1
  O  O15  1  0.652668  0.881963  0.973128  1
  O  O16  1  0.347332  0.118037  0.026872  1
  O  O17  1  0.635724  0.248252  0.413502  1
  O  O18  1  0.938949  0.692979  0.217993  1
  O  O19  1  0.881963  0.652668  0.526872  1
  O  O20  1  0.751748  0.364276  0.913502  1
  O  O21  1  0.307021  0.061051  0.717993  1
  O  O22  1  0.509493  0.509493  0.250000  1
  O  O23  1  0.490507  0.490507  0.750000  1
