# generated using pymatgen
data_Li2SiNiO4
_symmetry_space_group_name_H-M   'P 1'
_cell_length_a   4.99560679
_cell_length_b   6.34085348
_cell_length_c   10.66517956
_cell_angle_alpha   90.00000000
_cell_angle_beta   90.00000000
_cell_angle_gamma   90.00000000
_symmetry_Int_Tables_number   1
_chemical_formula_structural   Li2SiNiO4
_chemical_formula_sum   'Li8 Si4 Ni4 O16'
_cell_volume   337.83460792
_cell_formula_units_Z   4
loop_
 _symmetry_equiv_pos_site_id
 _symmetry_equiv_pos_as_xyz
  1  'x, y, z'
loop_
 _atom_site_type_symbol
 _atom_site_label
 _atom_site_symmetry_multiplicity
 _atom_site_fract_x
 _atom_site_fract_y
 _atom_site_fract_z
 _atom_site_occupancy
  Li  Li0  1  0.702893  0.993895  0.666074  1
  Li  Li1  1  0.797107  0.993895  0.166074  1
  Li  Li2  1  0.702893  0.506105  0.666074  1
  Li  Li3  1  0.797107  0.506105  0.166074  1
  Li  Li4  1  0.202893  0.493895  0.833926  1
  Li  Li5  1  0.297107  0.493895  0.333926  1
  Li  Li6  1  0.297107  0.006105  0.333926  1
  Li  Li7  1  0.202893  0.006105  0.833926  1
  Si  Si8  1  0.691381  0.250000  0.916384  1
  Si  Si9  1  0.808619  0.250000  0.416384  1
  Si  Si10  1  0.191381  0.750000  0.583616  1
  Si  Si11  1  0.308619  0.750000  0.083616  1
  Ni  Ni12  1  0.301070  0.250000  0.585513  1
  Ni  Ni13  1  0.198930  0.250000  0.085513  1
  Ni  Ni14  1  0.801070  0.750000  0.914487  1
  Ni  Ni15  1  0.698930  0.750000  0.414487  1
  O  O16  1  0.798829  0.037845  0.841927  1
  O  O17  1  0.701171  0.037845  0.341927  1
  O  O18  1  0.359765  0.250000  0.915966  1
  O  O19  1  0.703838  0.250000  0.563292  1
  O  O20  1  0.796162  0.250000  0.063292  1
  O  O21  1  0.140235  0.250000  0.415966  1
  O  O22  1  0.798829  0.462155  0.841927  1
  O  O23  1  0.701171  0.462155  0.341927  1
  O  O24  1  0.201171  0.537845  0.158073  1
  O  O25  1  0.298829  0.537845  0.658073  1
  O  O26  1  0.203838  0.750000  0.936708  1
  O  O27  1  0.859765  0.750000  0.584034  1
  O  O28  1  0.296162  0.750000  0.436708  1
  O  O29  1  0.640235  0.750000  0.084034  1
  O  O30  1  0.298829  0.962155  0.658073  1
  O  O31  1  0.201171  0.962155  0.158073  1
