# generated using pymatgen
data_Li(BiO2)2
_symmetry_space_group_name_H-M   'P 1'
_cell_length_a   8.20971336
_cell_length_b   8.20971336
_cell_length_c   6.11689823
_cell_angle_alpha   90.00000000
_cell_angle_beta   90.00000000
_cell_angle_gamma   90.00000000
_symmetry_Int_Tables_number   1
_chemical_formula_structural   Li(BiO2)2
_chemical_formula_sum   'Li4 Bi8 O16'
_cell_volume   412.27523031
_cell_formula_units_Z   4
loop_
 _symmetry_equiv_pos_site_id
 _symmetry_equiv_pos_as_xyz
  1  'x, y, z'
loop_
 _atom_site_type_symbol
 _atom_site_label
 _atom_site_symmetry_multiplicity
 _atom_site_fract_x
 _atom_site_fract_y
 _atom_site_fract_z
 _atom_site_occupancy
  Li  Li0  1  0.500000  0.000000  0.056704  1
  Li  Li1  1  0.500000  0.000000  0.556704  1
  Li  Li2  1  0.000000  0.500000  0.943296  1
  Li  Li3  1  0.000000  0.500000  0.443296  1
  Bi  Bi4  1  0.175718  0.175718  0.250000  1
  Bi  Bi5  1  0.824282  0.175718  0.750000  1
  Bi  Bi6  1  0.324282  0.324282  0.750000  1
  Bi  Bi7  1  0.675718  0.324282  0.250000  1
  Bi  Bi8  1  0.324282  0.675718  0.250000  1
  Bi  Bi9  1  0.675718  0.675718  0.750000  1
  Bi  Bi10  1  0.175718  0.824282  0.750000  1
  Bi  Bi11  1  0.824282  0.824282  0.250000  1
  O  O12  1  0.271620  0.085732  0.589212  1
  O  O13  1  0.728380  0.085732  0.089212  1
  O  O14  1  0.414268  0.228380  0.089212  1
  O  O15  1  0.585732  0.228380  0.589212  1
  O  O16  1  0.085732  0.271620  0.910788  1
  O  O17  1  0.914268  0.271620  0.410788  1
  O  O18  1  0.228380  0.414268  0.410788  1
  O  O19  1  0.771620  0.414268  0.910788  1
  O  O20  1  0.228380  0.585732  0.910788  1
  O  O21  1  0.771620  0.585732  0.410788  1
  O  O22  1  0.085732  0.728380  0.410788  1
  O  O23  1  0.914268  0.728380  0.910788  1
  O  O24  1  0.414268  0.771620  0.589212  1
  O  O25  1  0.585732  0.771620  0.089212  1
  O  O26  1  0.271620  0.914268  0.089212  1
  O  O27  1  0.728380  0.914268  0.589212  1
