# generated using pymatgen
data_U3Cu2H10(CO10)2
_symmetry_space_group_name_H-M   'P 1'
_cell_length_a   6.99179733
_cell_length_b   7.82026029
_cell_length_c   7.89229872
_cell_angle_alpha   90.53345574
_cell_angle_beta   95.36939812
_cell_angle_gamma   91.39534428
_symmetry_Int_Tables_number   1
_chemical_formula_structural   U3Cu2H10(CO10)2
_chemical_formula_sum   'U3 Cu2 H10 C2 O20'
_cell_volume   429.48250040
_cell_formula_units_Z   1
loop_
 _symmetry_equiv_pos_site_id
 _symmetry_equiv_pos_as_xyz
  1  'x, y, z'
loop_
 _atom_site_type_symbol
 _atom_site_label
 _atom_site_symmetry_multiplicity
 _atom_site_fract_x
 _atom_site_fract_y
 _atom_site_fract_z
 _atom_site_occupancy
  U  U0  1  0.000000  0.000000  0.000000  1
  U  U1  1  0.478196  0.804852  0.863244  1
  U  U2  1  0.521804  0.195148  0.136756  1
  Cu  Cu3  1  0.734267  0.503452  0.497586  1
  Cu  Cu4  1  0.265733  0.496548  0.502414  1
  H  H5  1  0.481128  0.459642  0.759372  1
  H  H6  1  0.518872  0.540358  0.240628  1
  H  H7  1  0.814298  0.226701  0.672740  1
  H  H8  1  0.185702  0.773299  0.327260  1
  H  H9  1  0.667928  0.181481  0.505539  1
  H  H10  1  0.332072  0.818519  0.494461  1
  H  H11  1  0.357645  0.188364  0.609616  1
  H  H12  1  0.642355  0.811636  0.390384  1
  H  H13  1  0.159228  0.229455  0.681984  1
  H  H14  1  0.840772  0.770545  0.318016  1
  C  C15  1  0.966416  0.686259  0.768813  1
  C  C16  1  0.033584  0.313741  0.231187  1
  O  O17  1  0.990238  0.139371  0.808028  1
  O  O18  1  0.009762  0.860629  0.191972  1
  O  O19  1  0.442975  0.931453  0.665839  1
  O  O20  1  0.557025  0.068547  0.334161  1
  O  O21  1  0.505587  0.673563  0.053623  1
  O  O22  1  0.494413  0.326437  0.946377  1
  O  O23  1  0.131695  0.751849  0.830763  1
  O  O24  1  0.868305  0.248151  0.169237  1
  O  O25  1  0.684761  0.001722  0.995616  1
  O  O26  1  0.315239  0.998278  0.004384  1
  O  O27  1  0.819584  0.764023  0.820321  1
  O  O28  1  0.180416  0.235977  0.179679  1
  O  O29  1  0.955369  0.557889  0.667804  1
  O  O30  1  0.044631  0.442111  0.332196  1
  O  O31  1  0.463094  0.561139  0.685541  1
  O  O32  1  0.536906  0.438861  0.314459  1
  O  O33  1  0.708167  0.270990  0.593079  1
  O  O34  1  0.291833  0.729010  0.406921  1
  O  O35  1  0.244149  0.259302  0.591472  1
  O  O36  1  0.755851  0.740698  0.408528  1
