# generated using pymatgen
data_Li3MnPCO7
_symmetry_space_group_name_H-M   'P 1'
_cell_length_a   8.60349782
_cell_length_b   6.48311281
_cell_length_c   9.84660559
_cell_angle_alpha   90.00000000
_cell_angle_beta   94.58670255
_cell_angle_gamma   90.00000000
_symmetry_Int_Tables_number   1
_chemical_formula_structural   Li3MnPCO7
_chemical_formula_sum   'Li12 Mn4 P4 C4 O28'
_cell_volume   547.45962882
_cell_formula_units_Z   4
loop_
 _symmetry_equiv_pos_site_id
 _symmetry_equiv_pos_as_xyz
  1  'x, y, z'
loop_
 _atom_site_type_symbol
 _atom_site_label
 _atom_site_symmetry_multiplicity
 _atom_site_fract_x
 _atom_site_fract_y
 _atom_site_fract_z
 _atom_site_occupancy
  Li  Li0  1  0.897111  0.749378  0.386508  1
  Li  Li1  1  0.897111  0.750622  0.886508  1
  Li  Li2  1  0.713627  0.988267  0.117444  1
  Li  Li3  1  0.713627  0.511733  0.617444  1
  Li  Li4  1  0.646741  0.255275  0.389615  1
  Li  Li5  1  0.646741  0.244725  0.889615  1
  Li  Li6  1  0.353259  0.755275  0.110385  1
  Li  Li7  1  0.353259  0.744725  0.610385  1
  Li  Li8  1  0.286373  0.488267  0.382556  1
  Li  Li9  1  0.286373  0.011733  0.882556  1
  Li  Li10  1  0.102889  0.249378  0.113492  1
  Li  Li11  1  0.102889  0.250622  0.613492  1
  Mn  Mn12  1  0.731651  0.501886  0.129302  1
  Mn  Mn13  1  0.731651  0.998114  0.629302  1
  Mn  Mn14  1  0.268349  0.001886  0.370698  1
  Mn  Mn15  1  0.268349  0.498114  0.870698  1
  P  P16  1  0.592873  0.748118  0.360062  1
  P  P17  1  0.592873  0.751882  0.860062  1
  P  P18  1  0.407127  0.248118  0.139938  1
  P  P19  1  0.407127  0.251882  0.639938  1
  C  C20  1  0.957886  0.252157  0.352050  1
  C  C21  1  0.957886  0.247843  0.852050  1
  C  C22  1  0.042114  0.752157  0.147950  1
  C  C23  1  0.042114  0.747843  0.647950  1
  O  O24  1  0.930134  0.239574  0.477783  1
  O  O25  1  0.896557  0.750298  0.182853  1
  O  O26  1  0.930134  0.260426  0.977783  1
  O  O27  1  0.846397  0.264728  0.255737  1
  O  O28  1  0.896557  0.749702  0.682853  1
  O  O29  1  0.846397  0.235272  0.755737  1
  O  O30  1  0.687350  0.941412  0.413297  1
  O  O31  1  0.693154  0.561032  0.410660  1
  O  O32  1  0.693154  0.938968  0.910660  1
  O  O33  1  0.687350  0.558588  0.913297  1
  O  O34  1  0.573670  0.244560  0.089982  1
  O  O35  1  0.577758  0.749444  0.200480  1
  O  O36  1  0.573670  0.255440  0.589982  1
  O  O37  1  0.577758  0.750556  0.700480  1
  O  O38  1  0.422242  0.249444  0.299520  1
  O  O39  1  0.426330  0.744560  0.410018  1
  O  O40  1  0.422242  0.250556  0.799520  1
  O  O41  1  0.426330  0.755440  0.910018  1
  O  O42  1  0.306846  0.061032  0.089340  1
  O  O43  1  0.312650  0.441412  0.086703  1
  O  O44  1  0.306846  0.438968  0.589340  1
  O  O45  1  0.312650  0.058588  0.586703  1
  O  O46  1  0.153603  0.764728  0.244263  1
  O  O47  1  0.103443  0.250298  0.317147  1
  O  O48  1  0.153603  0.735272  0.744263  1
  O  O49  1  0.069866  0.739574  0.022217  1
  O  O50  1  0.103443  0.249702  0.817147  1
  O  O51  1  0.069866  0.760426  0.522217  1
