# generated using pymatgen
data_FeOF
_symmetry_space_group_name_H-M   'P 1'
_cell_length_a   9.51305440
_cell_length_b   3.10834584
_cell_length_c   14.15402243
_cell_angle_alpha   90.00000000
_cell_angle_beta   90.09346931
_cell_angle_gamma   90.00000000
_symmetry_Int_Tables_number   1
_chemical_formula_structural   FeOF
_chemical_formula_sum   'Fe12 O12 F12'
_cell_volume   418.53194800
_cell_formula_units_Z   12
loop_
 _symmetry_equiv_pos_site_id
 _symmetry_equiv_pos_as_xyz
  1  'x, y, z'
loop_
 _atom_site_type_symbol
 _atom_site_label
 _atom_site_symmetry_multiplicity
 _atom_site_fract_x
 _atom_site_fract_y
 _atom_site_fract_z
 _atom_site_occupancy
  Fe  Fe0  1  0.996161  0.000000  0.012851  1
  Fe  Fe1  1  0.491440  0.000000  0.009667  1
  Fe  Fe2  1  0.247402  0.500000  0.152568  1
  Fe  Fe3  1  0.743412  0.500000  0.150770  1
  Fe  Fe4  1  0.994580  0.000000  0.344020  1
  Fe  Fe5  1  0.495508  0.000000  0.343907  1
  Fe  Fe6  1  0.744610  0.500000  0.485113  1
  Fe  Fe7  1  0.246821  0.500000  0.485001  1
  Fe  Fe8  1  0.992183  0.000000  0.676968  1
  Fe  Fe9  1  0.494820  0.000000  0.680002  1
  Fe  Fe10  1  0.276667  0.500000  0.841520  1
  Fe  Fe11  1  0.745303  0.500000  0.821800  1
  O  O12  1  0.405637  0.500000  0.068205  1
  O  O13  1  0.902389  0.500000  0.063436  1
  O  O14  1  0.152958  0.000000  0.101028  1
  O  O15  1  0.651524  0.000000  0.100239  1
  O  O16  1  0.402667  0.500000  0.397119  1
  O  O17  1  0.901711  0.500000  0.397586  1
  O  O18  1  0.150223  0.000000  0.435451  1
  O  O19  1  0.652005  0.000000  0.434424  1
  O  O20  1  0.399017  0.500000  0.729752  1
  O  O21  1  0.908262  0.500000  0.733550  1
  O  O22  1  0.655091  0.000000  0.766451  1
  O  O23  1  0.354191  0.000000  0.901284  1
  F  F24  1  0.348297  0.000000  0.232739  1
  F  F25  1  0.847575  0.000000  0.231793  1
  F  F26  1  0.097735  0.500000  0.267116  1
  F  F27  1  0.597316  0.500000  0.267577  1
  F  F28  1  0.347934  0.000000  0.564415  1
  F  F29  1  0.850551  0.000000  0.566574  1
  F  F30  1  0.100701  0.500000  0.605340  1
  F  F31  1  0.598907  0.500000  0.600552  1
  F  F32  1  0.154973  0.000000  0.769596  1
  F  F33  1  0.849788  0.000000  0.897014  1
  F  F34  1  0.095613  0.500000  0.930659  1
  F  F35  1  0.606028  0.500000  0.933909  1
