# generated using pymatgen
data_LiCu(PO3)3
_symmetry_space_group_name_H-M   'P 1'
_cell_length_a   7.12124446
_cell_length_b   9.05129770
_cell_length_c   12.11078570
_cell_angle_alpha   90.00000000
_cell_angle_beta   90.00000000
_cell_angle_gamma   90.00000000
_symmetry_Int_Tables_number   1
_chemical_formula_structural   LiCu(PO3)3
_chemical_formula_sum   'Li4 Cu4 P12 O36'
_cell_volume   780.61890209
_cell_formula_units_Z   4
loop_
 _symmetry_equiv_pos_site_id
 _symmetry_equiv_pos_as_xyz
  1  'x, y, z'
loop_
 _atom_site_type_symbol
 _atom_site_label
 _atom_site_symmetry_multiplicity
 _atom_site_fract_x
 _atom_site_fract_y
 _atom_site_fract_z
 _atom_site_occupancy
  Li  Li0  1  0.750000  0.470090  0.462275  1
  Li  Li1  1  0.750000  0.970090  0.037725  1
  Li  Li2  1  0.250000  0.529910  0.537725  1
  Li  Li3  1  0.250000  0.029910  0.962275  1
  Cu  Cu4  1  0.750000  0.512089  0.709856  1
  Cu  Cu5  1  0.750000  0.012089  0.790144  1
  Cu  Cu6  1  0.250000  0.987911  0.209856  1
  Cu  Cu7  1  0.250000  0.487911  0.290144  1
  P  P8  1  0.959754  0.756278  0.339165  1
  P  P9  1  0.959754  0.256278  0.160835  1
  P  P10  1  0.750000  0.310407  0.967813  1
  P  P11  1  0.750000  0.810407  0.532187  1
  P  P12  1  0.540246  0.256278  0.160835  1
  P  P13  1  0.540246  0.756278  0.339165  1
  P  P14  1  0.459754  0.243722  0.660835  1
  P  P15  1  0.459754  0.743722  0.839165  1
  P  P16  1  0.250000  0.189593  0.467813  1
  P  P17  1  0.250000  0.689593  0.032187  1
  P  P18  1  0.040246  0.243722  0.660835  1
  P  P19  1  0.040246  0.743722  0.839165  1
  O  O20  1  0.963549  0.647007  0.750148  1
  O  O21  1  0.963549  0.147007  0.749852  1
  O  O22  1  0.940925  0.885101  0.872903  1
  O  O23  1  0.940925  0.385101  0.627097  1
  O  O24  1  0.924760  0.351656  0.050486  1
  O  O25  1  0.924760  0.851656  0.449514  1
  O  O26  1  0.750000  0.706422  0.301003  1
  O  O27  1  0.750000  0.411201  0.872222  1
  O  O28  1  0.750000  0.911201  0.627778  1
  O  O29  1  0.750000  0.144861  0.954959  1
  O  O30  1  0.750000  0.206422  0.198997  1
  O  O31  1  0.750000  0.644861  0.545041  1
  O  O32  1  0.575240  0.351656  0.050486  1
  O  O33  1  0.575240  0.851656  0.449514  1
  O  O34  1  0.559075  0.885101  0.872903  1
  O  O35  1  0.559075  0.385101  0.627097  1
  O  O36  1  0.536451  0.647007  0.750148  1
  O  O37  1  0.536451  0.147007  0.749852  1
  O  O38  1  0.463549  0.852993  0.250148  1
  O  O39  1  0.463549  0.352993  0.249852  1
  O  O40  1  0.440925  0.114899  0.127097  1
  O  O41  1  0.440925  0.614899  0.372903  1
  O  O42  1  0.424760  0.148344  0.550486  1
  O  O43  1  0.424760  0.648344  0.949514  1
  O  O44  1  0.250000  0.855139  0.045041  1
  O  O45  1  0.250000  0.588799  0.127778  1
  O  O46  1  0.250000  0.355139  0.454959  1
  O  O47  1  0.250000  0.088799  0.372222  1
  O  O48  1  0.250000  0.293578  0.698997  1
  O  O49  1  0.250000  0.793578  0.801003  1
  O  O50  1  0.075240  0.148344  0.550486  1
  O  O51  1  0.075240  0.648344  0.949514  1
  O  O52  1  0.059075  0.614899  0.372903  1
  O  O53  1  0.059075  0.114899  0.127097  1
  O  O54  1  0.036451  0.352993  0.249852  1
  O  O55  1  0.036451  0.852993  0.250148  1
