# generated using pymatgen
data_Mn2OF3
_symmetry_space_group_name_H-M   'P 1'
_cell_length_a   7.37450108
_cell_length_b   7.37450108
_cell_length_c   7.08270840
_cell_angle_alpha   90.00000000
_cell_angle_beta   90.00000000
_cell_angle_gamma   128.66412952
_symmetry_Int_Tables_number   1
_chemical_formula_structural   Mn2OF3
_chemical_formula_sum   'Mn8 O4 F12'
_cell_volume   300.75753655
_cell_formula_units_Z   4
loop_
 _symmetry_equiv_pos_site_id
 _symmetry_equiv_pos_as_xyz
  1  'x, y, z'
loop_
 _atom_site_type_symbol
 _atom_site_label
 _atom_site_symmetry_multiplicity
 _atom_site_fract_x
 _atom_site_fract_y
 _atom_site_fract_z
 _atom_site_occupancy
  Mn  Mn0  1  0.874858  0.624880  0.750000  1
  Mn  Mn1  1  0.375120  0.125142  0.750000  1
  Mn  Mn2  1  0.874113  0.125887  0.750000  1
  Mn  Mn3  1  0.623785  0.376215  0.250000  1
  Mn  Mn4  1  0.376215  0.623785  0.750000  1
  Mn  Mn5  1  0.125887  0.874113  0.250000  1
  Mn  Mn6  1  0.125142  0.375120  0.250000  1
  Mn  Mn7  1  0.624880  0.874858  0.250000  1
  O  O8  1  0.530737  0.469263  0.750000  1
  O  O9  1  0.219693  0.780307  0.750000  1
  O  O10  1  0.469263  0.530737  0.250000  1
  O  O11  1  0.780307  0.219693  0.250000  1
  F  F12  1  0.026284  0.973716  0.750000  1
  F  F13  1  0.873464  0.623886  0.447988  1
  F  F14  1  0.376114  0.126536  0.447988  1
  F  F15  1  0.623886  0.873464  0.552012  1
  F  F16  1  0.873464  0.623886  0.052012  1
  F  F17  1  0.376114  0.126536  0.052012  1
  F  F18  1  0.126536  0.376114  0.552012  1
  F  F19  1  0.973716  0.026284  0.250000  1
  F  F20  1  0.722872  0.277128  0.750000  1
  F  F21  1  0.277128  0.722872  0.250000  1
  F  F22  1  0.623886  0.873464  0.947988  1
  F  F23  1  0.126536  0.376114  0.947988  1
