# generated using pymatgen
data_Sm(ClO4)3
_symmetry_space_group_name_H-M   'P 1'
_cell_length_a   9.38207187
_cell_length_b   9.38207187
_cell_length_c   5.82014455
_cell_angle_alpha   90.00000000
_cell_angle_beta   90.00000000
_cell_angle_gamma   120.00000000
_symmetry_Int_Tables_number   1
_chemical_formula_structural   Sm(ClO4)3
_chemical_formula_sum   'Sm2 Cl6 O24'
_cell_volume   443.67188961
_cell_formula_units_Z   2
loop_
 _symmetry_equiv_pos_site_id
 _symmetry_equiv_pos_as_xyz
  1  'x, y, z'
loop_
 _atom_site_type_symbol
 _atom_site_label
 _atom_site_symmetry_multiplicity
 _atom_site_fract_x
 _atom_site_fract_y
 _atom_site_fract_z
 _atom_site_occupancy
  Sm  Sm0  1  0.333333  0.666667  0.750000  1
  Sm  Sm1  1  0.666667  0.333333  0.250000  1
  Cl  Cl2  1  0.090680  0.709117  0.250000  1
  Cl  Cl3  1  0.290883  0.381564  0.250000  1
  Cl  Cl4  1  0.618436  0.909320  0.250000  1
  Cl  Cl5  1  0.381564  0.090680  0.750000  1
  Cl  Cl6  1  0.709117  0.618436  0.750000  1
  Cl  Cl7  1  0.909320  0.290883  0.750000  1
  O  O8  1  0.019721  0.811538  0.250000  1
  O  O9  1  0.032477  0.467449  0.750000  1
  O  O10  1  0.195840  0.742572  0.046473  1
  O  O11  1  0.195840  0.742572  0.453527  1
  O  O12  1  0.434971  0.967523  0.750000  1
  O  O13  1  0.257428  0.453268  0.453527  1
  O  O14  1  0.257428  0.453268  0.046473  1
  O  O15  1  0.188462  0.208183  0.250000  1
  O  O16  1  0.546732  0.804160  0.046473  1
  O  O17  1  0.546732  0.804160  0.453527  1
  O  O18  1  0.208183  0.019721  0.750000  1
  O  O19  1  0.467449  0.434971  0.250000  1
  O  O20  1  0.532551  0.565029  0.750000  1
  O  O21  1  0.791817  0.980279  0.250000  1
  O  O22  1  0.453268  0.195840  0.546473  1
  O  O23  1  0.453268  0.195840  0.953527  1
  O  O24  1  0.811538  0.791817  0.750000  1
  O  O25  1  0.742572  0.546732  0.953527  1
  O  O26  1  0.742572  0.546732  0.546473  1
  O  O27  1  0.565029  0.032477  0.250000  1
  O  O28  1  0.804160  0.257428  0.953527  1
  O  O29  1  0.804160  0.257428  0.546473  1
  O  O30  1  0.967523  0.532551  0.250000  1
  O  O31  1  0.980279  0.188462  0.750000  1
