# generated using pymatgen
data_Li5MnO3F
_symmetry_space_group_name_H-M   'P 1'
_cell_length_a   4.75085929
_cell_length_b   6.70323483
_cell_length_c   6.71295640
_cell_angle_alpha   89.83824828
_cell_angle_beta   89.71492050
_cell_angle_gamma   89.68789867
_symmetry_Int_Tables_number   1
_chemical_formula_structural   Li5MnO3F
_chemical_formula_sum   'Li10 Mn2 O6 F2'
_cell_volume   213.77499840
_cell_formula_units_Z   2
loop_
 _symmetry_equiv_pos_site_id
 _symmetry_equiv_pos_as_xyz
  1  'x, y, z'
loop_
 _atom_site_type_symbol
 _atom_site_label
 _atom_site_symmetry_multiplicity
 _atom_site_fract_x
 _atom_site_fract_y
 _atom_site_fract_z
 _atom_site_occupancy
  Li  Li0  1  0.957035  0.304453  0.247491  1
  Li  Li1  1  0.033256  0.541452  0.978591  1
  Li  Li2  1  0.541927  0.507558  0.977186  1
  Li  Li3  1  0.558505  0.815905  0.202067  1
  Li  Li4  1  0.017593  0.302819  0.700667  1
  Li  Li5  1  0.515140  0.229672  0.772522  1
  Li  Li6  1  0.465327  0.046719  0.472174  1
  Li  Li7  1  0.956932  0.008058  0.478244  1
  Li  Li8  1  0.979936  0.721554  0.676863  1
  Li  Li9  1  0.480283  0.802910  0.748579  1
  Mn  Mn10  1  0.980734  0.012032  0.963062  1
  Mn  Mn11  1  0.518598  0.513947  0.482757  1
  O  O12  1  0.811582  0.292020  0.971186  1
  O  O13  1  0.742616  0.257411  0.492571  1
  O  O14  1  0.757844  0.755898  0.956643  1
  O  O15  1  0.280282  0.523454  0.742757  1
  O  O16  1  0.687384  0.793923  0.478147  1
  O  O17  1  0.221528  0.026196  0.707103  1
  F  F18  1  0.275507  0.517332  0.204809  1
  F  F19  1  0.217990  0.026682  0.246579  1
