# generated using pymatgen
data_Li4Ti3Nb2V3O16
_symmetry_space_group_name_H-M   'P 1'
_cell_length_a   6.03939114
_cell_length_b   6.03939114
_cell_length_c   9.84299451
_cell_angle_alpha   89.99458775
_cell_angle_beta   90.00541225
_cell_angle_gamma   120.48047989
_symmetry_Int_Tables_number   1
_chemical_formula_structural   Li4Ti3Nb2V3O16
_chemical_formula_sum   'Li4 Ti3 Nb2 V3 O16'
_cell_volume   309.40053844
_cell_formula_units_Z   1
loop_
 _symmetry_equiv_pos_site_id
 _symmetry_equiv_pos_as_xyz
  1  'x, y, z'
loop_
 _atom_site_type_symbol
 _atom_site_label
 _atom_site_symmetry_multiplicity
 _atom_site_fract_x
 _atom_site_fract_y
 _atom_site_fract_z
 _atom_site_occupancy
  Li  Li0  1  0.663988  0.336012  0.098746  1
  Li  Li1  1  0.000385  0.999615  0.010516  1
  Li  Li2  1  0.003960  0.996040  0.506736  1
  Li  Li3  1  0.332862  0.667138  0.598560  1
  Ti  Ti4  1  0.835856  0.654553  0.780325  1
  Ti  Ti5  1  0.345447  0.164144  0.780325  1
  Ti  Ti6  1  0.175713  0.824287  0.271703  1
  Nb  Nb7  1  0.670526  0.329474  0.503578  1
  Nb  Nb8  1  0.341286  0.658714  0.005771  1
  V  V9  1  0.827249  0.172751  0.788411  1
  V  V10  1  0.652289  0.821301  0.288444  1
  V  V11  1  0.178699  0.347711  0.288444  1
  O  O12  1  0.833400  0.659257  0.407433  1
  O  O13  1  0.519311  0.480689  0.662696  1
  O  O14  1  0.655290  0.344710  0.895518  1
  O  O15  1  0.004125  0.995875  0.694310  1
  O  O16  1  0.005903  0.994097  0.197709  1
  O  O17  1  0.340743  0.166600  0.407433  1
  O  O18  1  0.962768  0.494855  0.657660  1
  O  O19  1  0.505145  0.037232  0.657660  1
  O  O20  1  0.166359  0.833641  0.902397  1
  O  O21  1  0.834208  0.165792  0.411301  1
  O  O22  1  0.472179  0.965897  0.156778  1
  O  O23  1  0.034103  0.527821  0.156778  1
  O  O24  1  0.319062  0.680938  0.397449  1
  O  O25  1  0.667232  0.826797  0.907042  1
  O  O26  1  0.479236  0.520764  0.151401  1
  O  O27  1  0.173203  0.332768  0.907042  1
