# generated using pymatgen
data_P3H22C3N9O11
_symmetry_space_group_name_H-M   'P 1'
_cell_length_a   10.83694019
_cell_length_b   15.25978347
_cell_length_c   15.28647261
_cell_angle_alpha   90.00000000
_cell_angle_beta   127.19516034
_cell_angle_gamma   90.00000000
_symmetry_Int_Tables_number   1
_chemical_formula_structural   P3H22C3N9O11
_chemical_formula_sum   'P12 H88 C12 N36 O44'
_cell_volume   2013.68838637
_cell_formula_units_Z   4
loop_
 _symmetry_equiv_pos_site_id
 _symmetry_equiv_pos_as_xyz
  1  'x, y, z'
loop_
 _atom_site_type_symbol
 _atom_site_label
 _atom_site_symmetry_multiplicity
 _atom_site_fract_x
 _atom_site_fract_y
 _atom_site_fract_z
 _atom_site_occupancy
  P  P0  1  0.378135  0.455999  0.139309  1
  P  P1  1  0.378135  0.044001  0.639309  1
  P  P2  1  0.621865  0.544001  0.860691  1
  P  P3  1  0.621865  0.955999  0.360691  1
  P  P4  1  0.687803  0.385974  0.301442  1
  P  P5  1  0.687803  0.114026  0.801442  1
  P  P6  1  0.312197  0.614026  0.698558  1
  P  P7  1  0.312197  0.885974  0.198558  1
  P  P8  1  0.457621  0.369221  0.338491  1
  P  P9  1  0.457621  0.130779  0.838491  1
  P  P10  1  0.542379  0.630779  0.661509  1
  P  P11  1  0.542379  0.869221  0.161509  1
  H  H12  1  0.797918  0.292198  0.825429  1
  H  H13  1  0.797918  0.207802  0.325429  1
  H  H14  1  0.202082  0.707802  0.174571  1
  H  H15  1  0.202082  0.792198  0.674571  1
  H  H16  1  0.734609  0.378817  0.843753  1
  H  H17  1  0.734609  0.121183  0.343753  1
  H  H18  1  0.265391  0.621183  0.156247  1
  H  H19  1  0.265391  0.878817  0.656247  1
  H  H20  1  0.351286  0.313668  0.824013  1
  H  H21  1  0.351286  0.186332  0.324013  1
  H  H22  1  0.648714  0.686332  0.175987  1
  H  H23  1  0.648714  0.813668  0.675987  1
  H  H24  1  0.443626  0.402003  0.852540  1
  H  H25  1  0.443626  0.097997  0.352540  1
  H  H26  1  0.556374  0.597997  0.147460  1
  H  H27  1  0.556374  0.902003  0.647460  1
  H  H28  1  0.717886  0.115614  0.519939  1
  H  H29  1  0.717886  0.384386  0.019939  1
  H  H30  1  0.282114  0.884386  0.480061  1
  H  H31  1  0.282114  0.615614  0.980061  1
  H  H32  1  0.736310  0.157458  0.634980  1
  H  H33  1  0.736310  0.342542  0.134980  1
  H  H34  1  0.263690  0.842542  0.365020  1
  H  H35  1  0.263690  0.657458  0.865020  1
  H  H36  1  0.115856  0.355375  0.141888  1
  H  H37  1  0.115856  0.144625  0.641888  1
  H  H38  1  0.884144  0.644625  0.858112  1
  H  H39  1  0.884144  0.855375  0.358112  1
  H  H40  1  0.936006  0.367195  0.014298  1
  H  H41  1  0.936006  0.132805  0.514298  1
  H  H42  1  0.063994  0.632805  0.985702  1
  H  H43  1  0.063994  0.867195  0.485702  1
  H  H44  1  0.976352  0.318266  0.294020  1
  H  H45  1  0.976352  0.181734  0.794020  1
  H  H46  1  0.023648  0.681734  0.705980  1
  H  H47  1  0.023648  0.818266  0.205980  1
  H  H48  1  0.138755  0.311122  0.292105  1
  H  H49  1  0.138755  0.188878  0.792105  1
  H  H50  1  0.861245  0.688878  0.707895  1
  H  H51  1  0.861245  0.811122  0.207895  1
  H  H52  1  0.721040  0.418151  0.584111  1
  H  H53  1  0.721040  0.081849  0.084111  1
  H  H54  1  0.278960  0.581849  0.415889  1
  H  H55  1  0.278960  0.918151  0.915889  1
  H  H56  1  0.798586  0.098778  0.222821  1
  H  H57  1  0.798586  0.401222  0.722821  1
  H  H58  1  0.201414  0.901222  0.777179  1
  H  H59  1  0.201414  0.598778  0.277179  1
  H  H60  1  0.898556  0.447104  0.542644  1
  H  H61  1  0.898556  0.052896  0.042644  1
  H  H62  1  0.101444  0.552896  0.457356  1
  H  H63  1  0.101444  0.947104  0.957356  1
  H  H64  1  0.090460  0.467398  0.649689  1
  H  H65  1  0.090460  0.032602  0.149689  1
  H  H66  1  0.909540  0.532602  0.350311  1
  H  H67  1  0.909540  0.967398  0.850311  1
  H  H68  1  0.059306  0.421556  0.863180  1
  H  H69  1  0.059306  0.078444  0.363180  1
  H  H70  1  0.940694  0.578444  0.136820  1
  H  H71  1  0.940694  0.921556  0.636820  1
  H  H72  1  0.187360  0.077850  0.330387  1
  H  H73  1  0.187360  0.422150  0.830387  1
  H  H74  1  0.812640  0.922150  0.669613  1
  H  H75  1  0.812640  0.577850  0.169613  1
  H  H76  1  0.338447  0.461779  0.579902  1
  H  H77  1  0.338447  0.038221  0.079902  1
  H  H78  1  0.661553  0.538221  0.420098  1
  H  H79  1  0.661553  0.961779  0.920098  1
  H  H80  1  0.427203  0.425398  0.520649  1
  H  H81  1  0.427203  0.074602  0.020649  1
  H  H82  1  0.572797  0.574602  0.479351  1
  H  H83  1  0.572797  0.925398  0.979351  1
  H  H84  1  0.231419  0.247301  0.601469  1
  H  H85  1  0.231419  0.252699  0.101469  1
  H  H86  1  0.768581  0.752699  0.398531  1
  H  H87  1  0.768581  0.747301  0.898531  1
  H  H88  1  0.235339  0.357094  0.632687  1
  H  H89  1  0.235339  0.142906  0.132687  1
  H  H90  1  0.764661  0.642906  0.367313  1
  H  H91  1  0.764661  0.857094  0.867313  1
  H  H92  1  0.334137  0.299692  0.017089  1
  H  H93  1  0.334137  0.200308  0.517089  1
  H  H94  1  0.665863  0.700308  0.982911  1
  H  H95  1  0.665863  0.799692  0.482911  1
  H  H96  1  0.413877  0.224473  0.976042  1
  H  H97  1  0.413877  0.275527  0.476042  1
  H  H98  1  0.586123  0.775527  0.023958  1
  H  H99  1  0.586123  0.724473  0.523958  1
  C  C100  1  0.933641  0.156201  0.647253  1
  C  C101  1  0.933641  0.343799  0.147253  1
  C  C102  1  0.066359  0.843799  0.352747  1
  C  C103  1  0.066359  0.656201  0.852747  1
  C  C104  1  0.958354  0.431708  0.698655  1
  C  C105  1  0.958354  0.068292  0.198655  1
  C  C106  1  0.041646  0.568292  0.301345  1
  C  C107  1  0.041646  0.931708  0.801345  1
  C  C108  1  0.325390  0.329209  0.550775  1
  C  C109  1  0.325390  0.170791  0.050775  1
  C  C110  1  0.674610  0.670791  0.449225  1
  C  C111  1  0.674610  0.829209  0.949225  1
  N  N112  1  0.780294  0.149373  0.592468  1
  N  N113  1  0.780294  0.350627  0.092468  1
  N  N114  1  0.219706  0.850627  0.407532  1
  N  N115  1  0.219706  0.649373  0.907532  1
  N  N116  1  0.998749  0.140221  0.597390  1
  N  N117  1  0.998749  0.359779  0.097390  1
  N  N118  1  0.001251  0.859779  0.402610  1
  N  N119  1  0.001251  0.640221  0.902610  1
  N  N120  1  0.023271  0.319312  0.253010  1
  N  N121  1  0.023271  0.180688  0.753010  1
  N  N122  1  0.976729  0.680688  0.746990  1
  N  N123  1  0.976729  0.819312  0.246990  1
  N  N124  1  0.814135  0.420636  0.665650  1
  N  N125  1  0.814135  0.079364  0.165650  1
  N  N126  1  0.185865  0.579364  0.334350  1
  N  N127  1  0.185865  0.920636  0.834350  1
  N  N128  1  0.986838  0.057712  0.124886  1
  N  N129  1  0.986838  0.442288  0.624886  1
  N  N130  1  0.013162  0.942288  0.875114  1
  N  N131  1  0.013162  0.557712  0.375114  1
  N  N132  1  0.077304  0.066214  0.306425  1
  N  N133  1  0.077304  0.433786  0.806425  1
  N  N134  1  0.922696  0.933786  0.693575  1
  N  N135  1  0.922696  0.566214  0.193575  1
  N  N136  1  0.364702  0.088232  0.049034  1
  N  N137  1  0.364702  0.411768  0.549034  1
  N  N138  1  0.635298  0.911768  0.950966  1
  N  N139  1  0.635298  0.588232  0.450966  1
  N  N140  1  0.243147  0.311206  0.588138  1
  N  N141  1  0.243147  0.188794  0.088138  1
  N  N142  1  0.756853  0.688794  0.411862  1
  N  N143  1  0.756853  0.811206  0.911862  1
  N  N144  1  0.361689  0.236538  0.011972  1
  N  N145  1  0.361689  0.263462  0.511972  1
  N  N146  1  0.638311  0.763462  0.988028  1
  N  N147  1  0.638311  0.736538  0.488028  1
  O  O148  1  0.367601  0.552171  0.113282  1
  O  O149  1  0.367601  0.947829  0.613282  1
  O  O150  1  0.632399  0.447829  0.886718  1
  O  O151  1  0.632399  0.052171  0.386718  1
  O  O152  1  0.257530  0.392873  0.056347  1
  O  O153  1  0.257530  0.107127  0.556347  1
  O  O154  1  0.742470  0.607127  0.943653  1
  O  O155  1  0.742470  0.892873  0.443653  1
  O  O156  1  0.547067  0.420686  0.179049  1
  O  O157  1  0.547067  0.079314  0.679049  1
  O  O158  1  0.452933  0.579314  0.820951  1
  O  O159  1  0.452933  0.920686  0.320951  1
  O  O160  1  0.591979  0.328830  0.332940  1
  O  O161  1  0.591979  0.171170  0.832940  1
  O  O162  1  0.408021  0.671170  0.667060  1
  O  O163  1  0.408021  0.828830  0.167060  1
  O  O164  1  0.764912  0.463004  0.377880  1
  O  O165  1  0.764912  0.036996  0.877880  1
  O  O166  1  0.235088  0.536996  0.622120  1
  O  O167  1  0.235088  0.963004  0.122120  1
  O  O168  1  0.780228  0.322573  0.287370  1
  O  O169  1  0.780228  0.177427  0.787370  1
  O  O170  1  0.219772  0.677427  0.712630  1
  O  O171  1  0.219772  0.822573  0.212630  1
  O  O172  1  0.395216  0.450975  0.253103  1
  O  O173  1  0.395216  0.049025  0.753103  1
  O  O174  1  0.604784  0.549025  0.746897  1
  O  O175  1  0.604784  0.950975  0.246897  1
  O  O176  1  0.331056  0.198172  0.792889  1
  O  O177  1  0.331056  0.301828  0.292889  1
  O  O178  1  0.668944  0.801828  0.207111  1
  O  O179  1  0.668944  0.698172  0.707111  1
  O  O180  1  0.528107  0.094132  0.950348  1
  O  O181  1  0.528107  0.405868  0.450348  1
  O  O182  1  0.471893  0.905868  0.049652  1
  O  O183  1  0.471893  0.594132  0.549652  1
  O  O184  1  0.819124  0.355427  0.843577  1
  O  O185  1  0.819124  0.144573  0.343577  1
  O  O186  1  0.180876  0.644573  0.156423  1
  O  O187  1  0.180876  0.855427  0.656423  1
  O  O188  1  0.348603  0.376833  0.836951  1
  O  O189  1  0.348603  0.123167  0.336951  1
  O  O190  1  0.651397  0.623167  0.163049  1
  O  O191  1  0.651397  0.876833  0.663049  1
