# generated using pymatgen
data_KZnP2O7
_symmetry_space_group_name_H-M   'P 1'
_cell_length_a   5.13334847
_cell_length_b   10.37671081
_cell_length_c   12.84886608
_cell_angle_alpha   90.00000000
_cell_angle_beta   90.00000000
_cell_angle_gamma   90.00000000
_symmetry_Int_Tables_number   1
_chemical_formula_structural   KZnP2O7
_chemical_formula_sum   'K4 Zn4 P8 O28'
_cell_volume   684.42405157
_cell_formula_units_Z   4
loop_
 _symmetry_equiv_pos_site_id
 _symmetry_equiv_pos_as_xyz
  1  'x, y, z'
loop_
 _atom_site_type_symbol
 _atom_site_label
 _atom_site_symmetry_multiplicity
 _atom_site_fract_x
 _atom_site_fract_y
 _atom_site_fract_z
 _atom_site_occupancy
  K  K0  1  0.993868  0.266888  0.000000  1
  K  K1  1  0.006132  0.766888  0.000000  1
  K  K2  1  0.501110  0.486997  0.500000  1
  K  K3  1  0.498890  0.986997  0.500000  1
  Zn  Zn4  1  0.524812  0.272665  0.251804  1
  Zn  Zn5  1  0.475188  0.772665  0.251804  1
  Zn  Zn6  1  0.475188  0.772665  0.748196  1
  Zn  Zn7  1  0.524812  0.272665  0.748196  1
  P  P8  1  0.471662  0.024389  0.114497  1
  P  P9  1  0.528338  0.524389  0.114497  1
  P  P10  1  0.015865  0.222705  0.386658  1
  P  P11  1  0.984135  0.722705  0.386658  1
  P  P12  1  0.015865  0.222705  0.613342  1
  P  P13  1  0.984135  0.722705  0.613342  1
  P  P14  1  0.471662  0.024389  0.885503  1
  P  P15  1  0.528338  0.524389  0.885503  1
  O  O16  1  0.419531  0.479584  0.000000  1
  O  O17  1  0.580469  0.979584  0.000000  1
  O  O18  1  0.567105  0.164392  0.127357  1
  O  O19  1  0.432895  0.664392  0.127357  1
  O  O20  1  0.176005  0.013043  0.115925  1
  O  O21  1  0.823995  0.513043  0.115925  1
  O  O22  1  0.396227  0.433027  0.191290  1
  O  O23  1  0.603773  0.933027  0.191290  1
  O  O24  1  0.128544  0.808069  0.308662  1
  O  O25  1  0.871456  0.308069  0.308662  1
  O  O26  1  0.087141  0.585559  0.387941  1
  O  O27  1  0.912859  0.085559  0.387941  1
  O  O28  1  0.314798  0.230257  0.374228  1
  O  O29  1  0.685202  0.730257  0.374228  1
  O  O30  1  0.957653  0.289748  0.500000  1
  O  O31  1  0.042347  0.789748  0.500000  1
  O  O32  1  0.314798  0.230257  0.625772  1
  O  O33  1  0.685202  0.730257  0.625772  1
  O  O34  1  0.087141  0.585559  0.612059  1
  O  O35  1  0.912859  0.085559  0.612059  1
  O  O36  1  0.128544  0.808069  0.691338  1
  O  O37  1  0.871456  0.308069  0.691338  1
  O  O38  1  0.396227  0.433027  0.808710  1
  O  O39  1  0.603773  0.933027  0.808710  1
  O  O40  1  0.176005  0.013043  0.884075  1
  O  O41  1  0.823995  0.513043  0.884075  1
  O  O42  1  0.432895  0.664392  0.872643  1
  O  O43  1  0.567105  0.164392  0.872643  1
