# generated using pymatgen
data_CaAl2Si2(H2O5)2
_symmetry_space_group_name_H-M   'P 1'
_cell_length_a   5.33934737
_cell_length_b   5.33934737
_cell_length_c   13.26602944
_cell_angle_alpha   90.00000000
_cell_angle_beta   90.00000000
_cell_angle_gamma   112.93083448
_symmetry_Int_Tables_number   1
_chemical_formula_structural   CaAl2Si2(H2O5)2
_chemical_formula_sum   'Ca2 Al4 Si4 H8 O20'
_cell_volume   348.30968952
_cell_formula_units_Z   2
loop_
 _symmetry_equiv_pos_site_id
 _symmetry_equiv_pos_as_xyz
  1  'x, y, z'
loop_
 _atom_site_type_symbol
 _atom_site_label
 _atom_site_symmetry_multiplicity
 _atom_site_fract_x
 _atom_site_fract_y
 _atom_site_fract_z
 _atom_site_occupancy
  Ca  Ca0  1  0.664177  0.335823  0.250000  1
  Ca  Ca1  1  0.335823  0.664177  0.750000  1
  Al  Al2  1  0.500000  0.000000  0.500000  1
  Al  Al3  1  0.000000  0.500000  0.500000  1
  Al  Al4  1  0.500000  0.000000  1.000000  1
  Al  Al5  1  0.000000  0.500000  0.000000  1
  Si  Si6  1  0.018037  0.981963  0.367391  1
  Si  Si7  1  0.981963  0.018037  0.632609  1
  Si  Si8  1  0.018037  0.981963  0.132609  1
  Si  Si9  1  0.981963  0.018037  0.867391  1
  H  H10  1  0.337426  0.662574  0.312085  1
  H  H11  1  0.662574  0.337426  0.687915  1
  H  H12  1  0.337426  0.662574  0.187915  1
  H  H13  1  0.662574  0.337426  0.812085  1
  H  H14  1  0.465031  0.534969  0.436587  1
  H  H15  1  0.534969  0.465031  0.563413  1
  H  H16  1  0.465031  0.534969  0.063413  1
  H  H17  1  0.534969  0.465031  0.936587  1
  O  O18  1  0.951087  0.048913  0.250000  1
  O  O19  1  0.048913  0.951087  0.750000  1
  O  O20  1  0.347583  0.110636  0.384772  1
  O  O21  1  0.110636  0.347583  0.615228  1
  O  O22  1  0.347583  0.110636  0.115228  1
  O  O23  1  0.110636  0.347583  0.884772  1
  O  O24  1  0.652417  0.889364  0.615228  1
  O  O25  1  0.889364  0.652417  0.384772  1
  O  O26  1  0.652417  0.889364  0.884772  1
  O  O27  1  0.889364  0.652417  0.115228  1
  O  O28  1  0.860514  0.139486  0.434760  1
  O  O29  1  0.139486  0.860514  0.565240  1
  O  O30  1  0.860514  0.139486  0.065240  1
  O  O31  1  0.139486  0.860514  0.934760  1
  O  O32  1  0.356576  0.643424  0.447931  1
  O  O33  1  0.643424  0.356576  0.552069  1
  O  O34  1  0.356576  0.643424  0.052069  1
  O  O35  1  0.643424  0.356576  0.947931  1
  O  O36  1  0.398021  0.601979  0.250000  1
  O  O37  1  0.601979  0.398021  0.750000  1
