# generated using pymatgen
data_Li2FeSi3O8
_symmetry_space_group_name_H-M   'P 1'
_cell_length_a   5.02422344
_cell_length_b   10.17719441
_cell_length_c   6.73524579
_cell_angle_alpha   90.00000000
_cell_angle_beta   90.05292826
_cell_angle_gamma   90.00000000
_symmetry_Int_Tables_number   1
_chemical_formula_structural   Li2FeSi3O8
_chemical_formula_sum   'Li4 Fe2 Si6 O16'
_cell_volume   344.38979952
_cell_formula_units_Z   2
loop_
 _symmetry_equiv_pos_site_id
 _symmetry_equiv_pos_as_xyz
  1  'x, y, z'
loop_
 _atom_site_type_symbol
 _atom_site_label
 _atom_site_symmetry_multiplicity
 _atom_site_fract_x
 _atom_site_fract_y
 _atom_site_fract_z
 _atom_site_occupancy
  Li  Li0  1  0.064982  0.147819  0.249235  1
  Li  Li1  1  0.935018  0.647819  0.750765  1
  Li  Li2  1  0.589632  0.342991  0.756424  1
  Li  Li3  1  0.410368  0.842991  0.243576  1
  Fe  Fe4  1  0.087177  0.160705  0.748871  1
  Fe  Fe5  1  0.912823  0.660705  0.251129  1
  Si  Si6  1  0.546729  0.335608  0.272009  1
  Si  Si7  1  0.960578  0.910270  0.984620  1
  Si  Si8  1  0.039422  0.410270  0.015380  1
  Si  Si9  1  0.453271  0.835608  0.727991  1
  Si  Si10  1  0.406510  0.594817  0.471450  1
  Si  Si11  1  0.593490  0.094817  0.528550  1
  O  O12  1  0.031078  0.844370  0.195042  1
  O  O13  1  0.860306  0.338172  0.200123  1
  O  O14  1  0.643705  0.875775  0.917842  1
  O  O15  1  0.982838  0.564663  0.001102  1
  O  O16  1  0.356295  0.375775  0.082158  1
  O  O17  1  0.017162  0.064663  0.998898  1
  O  O18  1  0.139694  0.838172  0.799877  1
  O  O19  1  0.968922  0.344370  0.804958  1
  O  O20  1  0.540231  0.682773  0.664948  1
  O  O21  1  0.487947  0.163800  0.728672  1
  O  O22  1  0.490708  0.934965  0.530534  1
  O  O23  1  0.090620  0.603272  0.504286  1
  O  O24  1  0.509292  0.434965  0.469466  1
  O  O25  1  0.909380  0.103272  0.495714  1
  O  O26  1  0.512053  0.663800  0.271328  1
  O  O27  1  0.459769  0.182773  0.335052  1
