# generated using pymatgen
data_LiVP3HO10
_symmetry_space_group_name_H-M   'P 1'
_cell_length_a   7.31256841
_cell_length_b   7.31256841
_cell_length_c   9.59376729
_cell_angle_alpha   72.13366849
_cell_angle_beta   107.86633151
_cell_angle_gamma   111.36637175
_symmetry_Int_Tables_number   1
_chemical_formula_structural   LiVP3HO10
_chemical_formula_sum   'Li2 V2 P6 H2 O20'
_cell_volume   443.57130951
_cell_formula_units_Z   2
loop_
 _symmetry_equiv_pos_site_id
 _symmetry_equiv_pos_as_xyz
  1  'x, y, z'
loop_
 _atom_site_type_symbol
 _atom_site_label
 _atom_site_symmetry_multiplicity
 _atom_site_fract_x
 _atom_site_fract_y
 _atom_site_fract_z
 _atom_site_occupancy
  Li  Li0  1  0.424103  0.424103  0.250000  1
  Li  Li1  1  0.575897  0.575897  0.750000  1
  V  V2  1  0.000000  0.500000  0.500000  1
  V  V3  1  0.500000  0.000000  0.000000  1
  P  P4  1  0.862610  0.282220  0.203632  1
  P  P5  1  0.717780  0.137390  0.703632  1
  P  P6  1  0.868070  0.868070  0.250000  1
  P  P7  1  0.131930  0.131930  0.750000  1
  P  P8  1  0.282220  0.862610  0.296368  1
  P  P9  1  0.137390  0.717780  0.796368  1
  H  H10  1  0.000000  0.500000  0.000000  1
  H  H11  1  0.500000  1.000000  0.500000  1
  O  O12  1  0.902434  0.069936  0.299802  1
  O  O13  1  0.930064  0.097566  0.799802  1
  O  O14  1  0.658765  0.238958  0.093094  1
  O  O15  1  0.854897  0.380242  0.319017  1
  O  O16  1  0.395107  0.040927  0.375417  1
  O  O17  1  0.761042  0.341235  0.593094  1
  O  O18  1  0.619758  0.145103  0.819017  1
  O  O19  1  0.841373  0.704823  0.389323  1
  O  O20  1  0.959073  0.604893  0.875417  1
  O  O21  1  0.704823  0.841373  0.110677  1
  O  O22  1  0.295177  0.158627  0.889323  1
  O  O23  1  0.040927  0.395107  0.124583  1
  O  O24  1  0.158627  0.295177  0.610677  1
  O  O25  1  0.380242  0.854897  0.180983  1
  O  O26  1  0.238958  0.658765  0.406906  1
  O  O27  1  0.604893  0.959073  0.624583  1
  O  O28  1  0.145103  0.619758  0.680983  1
  O  O29  1  0.341235  0.761042  0.906906  1
  O  O30  1  0.069936  0.902434  0.200198  1
  O  O31  1  0.097566  0.930064  0.700198  1
