# generated using pymatgen
data_TiFe2Ni3(PO4)6
_symmetry_space_group_name_H-M   'P 1'
_cell_length_a   8.41873256
_cell_length_b   8.41873256
_cell_length_c   8.41873256
_cell_angle_alpha   61.86089637
_cell_angle_beta   61.86089637
_cell_angle_gamma   61.86089637
_symmetry_Int_Tables_number   1
_chemical_formula_structural   TiFe2Ni3(PO4)6
_chemical_formula_sum   'Ti1 Fe2 Ni3 P6 O24'
_cell_volume   439.49449048
_cell_formula_units_Z   1
loop_
 _symmetry_equiv_pos_site_id
 _symmetry_equiv_pos_as_xyz
  1  'x, y, z'
loop_
 _atom_site_type_symbol
 _atom_site_label
 _atom_site_symmetry_multiplicity
 _atom_site_fract_x
 _atom_site_fract_y
 _atom_site_fract_z
 _atom_site_occupancy
  Ti  Ti0  1  0.147047  0.147047  0.147047  1
  Fe  Fe1  1  0.997748  0.997748  0.997748  1
  Fe  Fe2  1  0.498884  0.498884  0.498884  1
  Ni  Ni3  1  0.855225  0.855225  0.855225  1
  Ni  Ni4  1  0.642328  0.642328  0.642328  1
  Ni  Ni5  1  0.356914  0.356914  0.356914  1
  P  P6  1  0.749111  0.450021  0.051363  1
  P  P7  1  0.450021  0.051363  0.749111  1
  P  P8  1  0.051363  0.749111  0.450021  1
  P  P9  1  0.951075  0.251450  0.550549  1
  P  P10  1  0.550549  0.951075  0.251450  1
  P  P11  1  0.251450  0.550549  0.951075  1
  O  O12  1  0.899248  0.674333  0.487805  1
  O  O13  1  0.674333  0.487805  0.899248  1
  O  O14  1  0.938012  0.096267  0.749637  1
  O  O15  1  0.487805  0.899248  0.674333  1
  O  O16  1  0.015371  0.168244  0.390684  1
  O  O17  1  0.748830  0.398203  0.553515  1
  O  O18  1  0.749637  0.938012  0.096267  1
  O  O19  1  0.553515  0.748830  0.398203  1
  O  O20  1  0.826459  0.602224  0.002257  1
  O  O21  1  0.398203  0.553515  0.748830  1
  O  O22  1  0.906169  0.244751  0.069961  1
  O  O23  1  0.602224  0.002257  0.826459  1
  O  O24  1  0.390684  0.015371  0.168244  1
  O  O25  1  0.096267  0.749637  0.938012  1
  O  O26  1  0.600634  0.431571  0.255476  1
  O  O27  1  0.168244  0.390684  0.015371  1
  O  O28  1  0.431571  0.255476  0.600634  1
  O  O29  1  0.244751  0.069961  0.906169  1
  O  O30  1  0.255476  0.600634  0.431571  1
  O  O31  1  0.002257  0.826459  0.602224  1
  O  O32  1  0.504374  0.096117  0.338147  1
  O  O33  1  0.069961  0.906169  0.244751  1
  O  O34  1  0.338147  0.504374  0.096117  1
  O  O35  1  0.096117  0.338147  0.504374  1
