# generated using pymatgen
data_UP3HO11
_symmetry_space_group_name_H-M   'P 1'
_cell_length_a   9.92462837
_cell_length_b   8.78477609
_cell_length_c   21.03153846
_cell_angle_alpha   90.00000000
_cell_angle_beta   94.14276704
_cell_angle_gamma   90.00000000
_symmetry_Int_Tables_number   1
_chemical_formula_structural   UP3HO11
_chemical_formula_sum   'U8 P24 H8 O88'
_cell_volume   1828.85702810
_cell_formula_units_Z   8
loop_
 _symmetry_equiv_pos_site_id
 _symmetry_equiv_pos_as_xyz
  1  'x, y, z'
loop_
 _atom_site_type_symbol
 _atom_site_label
 _atom_site_symmetry_multiplicity
 _atom_site_fract_x
 _atom_site_fract_y
 _atom_site_fract_z
 _atom_site_occupancy
  U  U0  1  0.302633  0.380822  0.402753  1
  U  U1  1  0.697367  0.880822  0.097247  1
  U  U2  1  0.697367  0.619178  0.597247  1
  U  U3  1  0.302633  0.119178  0.902753  1
  U  U4  1  0.789776  0.383398  0.856521  1
  U  U5  1  0.210224  0.883398  0.643479  1
  U  U6  1  0.210224  0.616602  0.143479  1
  U  U7  1  0.789776  0.116602  0.356521  1
  P  P8  1  0.138888  0.250397  0.553123  1
  P  P9  1  0.861112  0.750397  0.946877  1
  P  P10  1  0.861112  0.749603  0.446877  1
  P  P11  1  0.138888  0.249603  0.053123  1
  P  P12  1  0.208311  0.455042  0.666345  1
  P  P13  1  0.791689  0.955042  0.833655  1
  P  P14  1  0.791689  0.544958  0.333655  1
  P  P15  1  0.208311  0.044958  0.166345  1
  P  P16  1  0.620714  0.280491  0.690274  1
  P  P17  1  0.379286  0.780491  0.809726  1
  P  P18  1  0.379286  0.719509  0.309726  1
  P  P19  1  0.620714  0.219509  0.190274  1
  P  P20  1  0.352130  0.209526  0.735034  1
  P  P21  1  0.647870  0.709526  0.764966  1
  P  P22  1  0.647870  0.790474  0.264966  1
  P  P23  1  0.352130  0.290474  0.235034  1
  P  P24  1  0.704642  0.049051  0.598921  1
  P  P25  1  0.295358  0.549051  0.901079  1
  P  P26  1  0.295358  0.950949  0.401079  1
  P  P27  1  0.704642  0.450949  0.098921  1
  P  P28  1  0.848019  0.278285  0.520847  1
  P  P29  1  0.151981  0.778285  0.979153  1
  P  P30  1  0.151981  0.721715  0.479153  1
  P  P31  1  0.848019  0.221715  0.020847  1
  H  H32  1  0.989325  0.487417  0.675772  1
  H  H33  1  0.010675  0.987417  0.824228  1
  H  H34  1  0.010675  0.512583  0.324228  1
  H  H35  1  0.989325  0.012583  0.175772  1
  H  H36  1  0.489542  0.015189  0.575254  1
  H  H37  1  0.510458  0.515189  0.924746  1
  H  H38  1  0.510458  0.984811  0.424746  1
  H  H39  1  0.489542  0.484811  0.075254  1
  O  O40  1  0.870979  0.266146  0.953792  1
  O  O41  1  0.129021  0.766146  0.546208  1
  O  O42  1  0.129021  0.733854  0.046208  1
  O  O43  1  0.870979  0.233854  0.453792  1
  O  O44  1  0.459186  0.158910  0.946979  1
  O  O45  1  0.540814  0.658910  0.553021  1
  O  O46  1  0.540814  0.841090  0.053021  1
  O  O47  1  0.459186  0.341090  0.446979  1
  O  O48  1  0.225507  0.353536  0.604715  1
  O  O49  1  0.774493  0.853536  0.895285  1
  O  O50  1  0.774493  0.646464  0.395285  1
  O  O51  1  0.225507  0.146464  0.104715  1
  O  O52  1  0.143676  0.075374  0.856862  1
  O  O53  1  0.856324  0.575374  0.643138  1
  O  O54  1  0.856324  0.924626  0.143138  1
  O  O55  1  0.143676  0.424626  0.356862  1
  O  O56  1  0.593910  0.402343  0.640925  1
  O  O57  1  0.406090  0.902343  0.859075  1
  O  O58  1  0.406090  0.597657  0.359075  1
  O  O59  1  0.593910  0.097657  0.140925  1
  O  O60  1  0.261093  0.388527  0.885670  1
  O  O61  1  0.738907  0.888527  0.614330  1
  O  O62  1  0.738907  0.611473  0.114330  1
  O  O63  1  0.261093  0.111473  0.385670  1
  O  O64  1  0.483925  0.184000  0.695973  1
  O  O65  1  0.516075  0.684000  0.804027  1
  O  O66  1  0.516075  0.816000  0.304027  1
  O  O67  1  0.483925  0.316000  0.195973  1
  O  O68  1  0.314990  0.387057  0.718938  1
  O  O69  1  0.685010  0.887057  0.781062  1
  O  O70  1  0.685010  0.612943  0.281062  1
  O  O71  1  0.314990  0.112943  0.218938  1
  O  O72  1  0.624889  0.410631  0.887903  1
  O  O73  1  0.375111  0.910631  0.612097  1
  O  O74  1  0.375111  0.589369  0.112097  1
  O  O75  1  0.624889  0.089369  0.387903  1
  O  O76  1  0.242217  0.111568  0.704380  1
  O  O77  1  0.757783  0.611568  0.795620  1
  O  O78  1  0.757783  0.888432  0.295620  1
  O  O79  1  0.242217  0.388432  0.204380  1
  O  O80  1  0.990682  0.324862  0.557376  1
  O  O81  1  0.009318  0.824862  0.942624  1
  O  O82  1  0.009318  0.675138  0.442624  1
  O  O83  1  0.990682  0.175138  0.057376  1
  O  O84  1  0.953581  0.362714  0.826772  1
  O  O85  1  0.046419  0.862714  0.673228  1
  O  O86  1  0.046419  0.637286  0.173228  1
  O  O87  1  0.953581  0.137286  0.326772  1
  O  O88  1  0.069081  0.423069  0.692243  1
  O  O89  1  0.930919  0.923069  0.807757  1
  O  O90  1  0.930919  0.576931  0.307757  1
  O  O91  1  0.069081  0.076931  0.192243  1
  O  O92  1  0.755286  0.115082  0.847055  1
  O  O93  1  0.244714  0.615082  0.652945  1
  O  O94  1  0.244714  0.884918  0.152945  1
  O  O95  1  0.755286  0.384918  0.347055  1
  O  O96  1  0.136237  0.088803  0.575725  1
  O  O97  1  0.863763  0.588803  0.924275  1
  O  O98  1  0.863763  0.911197  0.424275  1
  O  O99  1  0.136237  0.411197  0.075725  1
  O  O100  1  0.190655  0.216471  0.989669  1
  O  O101  1  0.809345  0.716471  0.510331  1
  O  O102  1  0.809345  0.783529  0.010331  1
  O  O103  1  0.190655  0.283529  0.489669  1
  O  O104  1  0.566177  0.080356  0.561521  1
  O  O105  1  0.433823  0.580356  0.938479  1
  O  O106  1  0.433823  0.919644  0.438479  1
  O  O107  1  0.566177  0.419644  0.061521  1
  O  O108  1  0.814224  0.121359  0.557481  1
  O  O109  1  0.185776  0.621359  0.942519  1
  O  O110  1  0.185776  0.878641  0.442519  1
  O  O111  1  0.814224  0.378641  0.057481  1
  O  O112  1  0.714423  0.147806  0.663135  1
  O  O113  1  0.285577  0.647806  0.836865  1
  O  O114  1  0.285577  0.852194  0.336865  1
  O  O115  1  0.714423  0.352194  0.163135  1
  O  O116  1  0.390762  0.199044  0.804936  1
  O  O117  1  0.609238  0.699044  0.695064  1
  O  O118  1  0.609238  0.800956  0.195064  1
  O  O119  1  0.390762  0.300956  0.304936  1
  O  O120  1  0.681763  0.323989  0.754507  1
  O  O121  1  0.318237  0.823989  0.745493  1
  O  O122  1  0.318237  0.676011  0.245493  1
  O  O123  1  0.681763  0.176011  0.254507  1
  O  O124  1  0.749331  0.400523  0.534189  1
  O  O125  1  0.250669  0.900523  0.965811  1
  O  O126  1  0.250669  0.599477  0.465811  1
  O  O127  1  0.749331  0.099477  0.034189  1
