# generated using pymatgen
data_Na5LiMn2P2(CO7)2
_symmetry_space_group_name_H-M   'P 1'
_cell_length_a   8.98197352
_cell_length_b   6.76177515
_cell_length_c   13.73723463
_cell_angle_alpha   90.00000000
_cell_angle_beta   130.87379783
_cell_angle_gamma   90.00000000
_symmetry_Int_Tables_number   1
_chemical_formula_structural   Na5LiMn2P2(CO7)2
_chemical_formula_sum   'Na10 Li2 Mn4 P4 C4 O28'
_cell_volume   630.87218959
_cell_formula_units_Z   2
loop_
 _symmetry_equiv_pos_site_id
 _symmetry_equiv_pos_as_xyz
  1  'x, y, z'
loop_
 _atom_site_type_symbol
 _atom_site_label
 _atom_site_symmetry_multiplicity
 _atom_site_fract_x
 _atom_site_fract_y
 _atom_site_fract_z
 _atom_site_occupancy
  Na  Na0  1  0.453690  0.250456  0.371163  1
  Na  Na1  1  0.953703  0.254134  0.869859  1
  Na  Na2  1  0.881643  0.001113  0.625526  1
  Na  Na3  1  0.385098  0.000790  0.126440  1
  Na  Na4  1  0.385114  0.499878  0.126913  1
  Na  Na5  1  0.118357  0.501113  0.374474  1
  Na  Na6  1  0.614902  0.500790  0.873560  1
  Na  Na7  1  0.614886  0.999878  0.873087  1
  Na  Na8  1  0.546310  0.750456  0.628837  1
  Na  Na9  1  0.046297  0.754134  0.130141  1
  Li  Li10  1  0.908858  0.482200  0.634608  1
  Li  Li11  1  0.091142  0.982200  0.365392  1
  Mn  Mn12  1  0.724521  0.747547  0.364338  1
  Mn  Mn13  1  0.219684  0.747404  0.857159  1
  Mn  Mn14  1  0.275479  0.247547  0.635662  1
  Mn  Mn15  1  0.780316  0.247404  0.142841  1
  P  P16  1  0.815111  0.248405  0.401996  1
  P  P17  1  0.308394  0.249476  0.895810  1
  P  P18  1  0.184889  0.748405  0.598004  1
  P  P19  1  0.691606  0.749476  0.104190  1
  C  C20  1  0.437551  0.757335  0.382632  1
  C  C21  1  0.942518  0.749304  0.881940  1
  C  C22  1  0.562449  0.257335  0.617368  1
  C  C23  1  0.057482  0.249304  0.118060  1
  O  O24  1  0.696618  0.274495  0.607646  1
  O  O25  1  0.190089  0.249738  0.107009  1
  O  O26  1  0.387832  0.749931  0.269579  1
  O  O27  1  0.891557  0.750670  0.768775  1
  O  O28  1  0.623456  0.746469  0.484994  1
  O  O29  1  0.129327  0.747341  0.984450  1
  O  O30  1  0.682700  0.064723  0.364848  1
  O  O31  1  0.678862  0.432312  0.349910  1
  O  O32  1  0.177318  0.063661  0.856253  1
  O  O33  1  0.170018  0.431662  0.850430  1
  O  O34  1  0.975111  0.264928  0.552325  1
  O  O35  1  0.078109  0.731818  0.652528  1
  O  O36  1  0.475016  0.253179  0.045718  1
  O  O37  1  0.594617  0.751028  0.164576  1
  O  O38  1  0.921891  0.231818  0.347472  1
  O  O39  1  0.024889  0.764928  0.447675  1
  O  O40  1  0.405383  0.251028  0.835424  1
  O  O41  1  0.524984  0.753179  0.954282  1
  O  O42  1  0.317300  0.564723  0.635152  1
  O  O43  1  0.321138  0.932312  0.650090  1
  O  O44  1  0.822682  0.563661  0.143747  1
  O  O45  1  0.829982  0.931662  0.149570  1
  O  O46  1  0.376544  0.246469  0.515006  1
  O  O47  1  0.870673  0.247341  0.015550  1
  O  O48  1  0.612168  0.249931  0.730421  1
  O  O49  1  0.108443  0.250670  0.231225  1
  O  O50  1  0.303382  0.774495  0.392354  1
  O  O51  1  0.809911  0.749738  0.892991  1
