# generated using pymatgen
data_Li4Mn3Cu3(SnO8)2
_symmetry_space_group_name_H-M   'P 1'
_cell_length_a   5.95248317
_cell_length_b   5.95248317
_cell_length_c   9.68288610
_cell_angle_alpha   89.08426510
_cell_angle_beta   90.91573490
_cell_angle_gamma   120.58156433
_symmetry_Int_Tables_number   1
_chemical_formula_structural   Li4Mn3Cu3(SnO8)2
_chemical_formula_sum   'Li4 Mn3 Cu3 Sn2 O16'
_cell_volume   295.31347317
_cell_formula_units_Z   1
loop_
 _symmetry_equiv_pos_site_id
 _symmetry_equiv_pos_as_xyz
  1  'x, y, z'
loop_
 _atom_site_type_symbol
 _atom_site_label
 _atom_site_symmetry_multiplicity
 _atom_site_fract_x
 _atom_site_fract_y
 _atom_site_fract_z
 _atom_site_occupancy
  Li  Li0  1  0.670269  0.329731  0.103414  1
  Li  Li1  1  0.999299  0.000701  0.003491  1
  Li  Li2  1  0.999439  0.000561  0.507841  1
  Li  Li3  1  0.336949  0.663051  0.609921  1
  Mn  Mn4  1  0.829840  0.170160  0.784657  1
  Mn  Mn5  1  0.661306  0.830507  0.285079  1
  Mn  Mn6  1  0.169493  0.338694  0.285079  1
  Cu  Cu7  1  0.828068  0.659807  0.785809  1
  Cu  Cu8  1  0.340193  0.171932  0.785809  1
  Cu  Cu9  1  0.169790  0.830210  0.284812  1
  Sn  Sn10  1  0.662948  0.337052  0.510744  1
  Sn  Sn11  1  0.328498  0.671502  0.004712  1
  O  O12  1  0.831890  0.684274  0.400001  1
  O  O13  1  0.517939  0.482061  0.660109  1
  O  O14  1  0.675527  0.324473  0.892064  1
  O  O15  1  0.992759  0.007241  0.694399  1
  O  O16  1  0.992009  0.007991  0.191738  1
  O  O17  1  0.315726  0.168110  0.400001  1
  O  O18  1  0.970417  0.470741  0.660572  1
  O  O19  1  0.529259  0.029583  0.660572  1
  O  O20  1  0.155260  0.844740  0.903172  1
  O  O21  1  0.838599  0.161401  0.393750  1
  O  O22  1  0.497475  0.963342  0.162779  1
  O  O23  1  0.036658  0.502525  0.162779  1
  O  O24  1  0.342815  0.657185  0.389699  1
  O  O25  1  0.677119  0.849711  0.900402  1
  O  O26  1  0.484396  0.515604  0.169162  1
  O  O27  1  0.150289  0.322881  0.900402  1
