# generated using pymatgen
data_Li3Mn4O8
_symmetry_space_group_name_H-M   'P 1'
_cell_length_a   6.07197064
_cell_length_b   6.07197064
_cell_length_c   5.78498878
_cell_angle_alpha   61.73213531
_cell_angle_beta   118.26786469
_cell_angle_gamma   122.75779990
_symmetry_Int_Tables_number   1
_chemical_formula_structural   Li3Mn4O8
_chemical_formula_sum   'Li3 Mn4 O8'
_cell_volume   151.02122253
_cell_formula_units_Z   1
loop_
 _symmetry_equiv_pos_site_id
 _symmetry_equiv_pos_as_xyz
  1  'x, y, z'
loop_
 _atom_site_type_symbol
 _atom_site_label
 _atom_site_symmetry_multiplicity
 _atom_site_fract_x
 _atom_site_fract_y
 _atom_site_fract_z
 _atom_site_occupancy
  Li  Li0  1  0.000000  0.500000  0.000000  1
  Li  Li1  1  0.500000  1.000000  0.000000  1
  Li  Li2  1  0.500000  0.500000  0.500000  1
  Mn  Mn3  1  0.000000  0.500000  0.500000  1
  Mn  Mn4  1  0.500000  1.000000  0.500000  1
  Mn  Mn5  1  0.000000  0.000000  0.000000  1
  Mn  Mn6  1  0.000000  0.000000  0.500000  1
  O  O7  1  0.774075  0.779402  0.251817  1
  O  O8  1  0.220598  0.225925  0.251817  1
  O  O9  1  0.218409  0.781591  0.702980  1
  O  O10  1  0.744073  0.255927  0.717831  1
  O  O11  1  0.255927  0.744073  0.282169  1
  O  O12  1  0.781591  0.218409  0.297020  1
  O  O13  1  0.779402  0.774075  0.748183  1
  O  O14  1  0.225925  0.220598  0.748183  1
