# generated using pymatgen
data_Li2VOF4
_symmetry_space_group_name_H-M   'P 1'
_cell_length_a   5.34217573
_cell_length_b   5.34217573
_cell_length_c   10.30715709
_cell_angle_alpha   90.00000000
_cell_angle_beta   90.00000000
_cell_angle_gamma   140.18531200
_symmetry_Int_Tables_number   1
_chemical_formula_structural   Li2VOF4
_chemical_formula_sum   'Li4 V2 O2 F8'
_cell_volume   188.34896366
_cell_formula_units_Z   2
loop_
 _symmetry_equiv_pos_site_id
 _symmetry_equiv_pos_as_xyz
  1  'x, y, z'
loop_
 _atom_site_type_symbol
 _atom_site_label
 _atom_site_symmetry_multiplicity
 _atom_site_fract_x
 _atom_site_fract_y
 _atom_site_fract_z
 _atom_site_occupancy
  Li  Li0  1  0.866150  0.133850  0.074182  1
  Li  Li1  1  0.818321  0.181679  0.750243  1
  Li  Li2  1  0.181679  0.818321  0.250243  1
  Li  Li3  1  0.133850  0.866150  0.574182  1
  V  V4  1  0.859599  0.140401  0.441811  1
  V  V5  1  0.140401  0.859599  0.941811  1
  O  O6  1  0.335992  0.664008  0.435142  1
  O  O7  1  0.664008  0.335992  0.935142  1
  F  F8  1  0.964669  0.035331  0.874673  1
  F  F9  1  0.945629  0.054371  0.608100  1
  F  F10  1  0.307246  0.692754  0.050774  1
  F  F11  1  0.769131  0.230869  0.265076  1
  F  F12  1  0.230869  0.769131  0.765076  1
  F  F13  1  0.692754  0.307246  0.550774  1
  F  F14  1  0.035331  0.964669  0.374673  1
  F  F15  1  0.054371  0.945629  0.108100  1
