# generated using pymatgen
data_CaPbI4
_symmetry_space_group_name_H-M   'P 1'
_cell_length_a   7.37104061
_cell_length_b   4.59503875
_cell_length_c   8.02273099
_cell_angle_alpha   90.00000000
_cell_angle_beta   90.26771844
_cell_angle_gamma   90.00000000
_symmetry_Int_Tables_number   1
_chemical_formula_structural   CaPbI4
_chemical_formula_sum   'Ca1 Pb1 I4'
_cell_volume   271.72867499
_cell_formula_units_Z   1
loop_
 _symmetry_equiv_pos_site_id
 _symmetry_equiv_pos_as_xyz
  1  'x, y, z'
loop_
 _atom_site_type_symbol
 _atom_site_label
 _atom_site_symmetry_multiplicity
 _atom_site_fract_x
 _atom_site_fract_y
 _atom_site_fract_z
 _atom_site_occupancy
  Ca  Ca0  1  0.000000  0.500000  0.000000  1
  Pb  Pb1  1  0.000000  0.000000  0.500000  1
  I  I2  1  0.241379  0.000000  0.842083  1
  I  I3  1  0.247880  0.500000  0.323474  1
  I  I4  1  0.752120  0.500000  0.676526  1
  I  I5  1  0.758621  0.000000  0.157917  1
