# generated using pymatgen
data_BaSrI4
_symmetry_space_group_name_H-M   'P 1'
_cell_length_a   12.20986785
_cell_length_b   12.20986785
_cell_length_c   8.30069562
_cell_angle_alpha   90.00000000
_cell_angle_beta   90.00000000
_cell_angle_gamma   149.80446459
_symmetry_Int_Tables_number   1
_chemical_formula_structural   BaSrI4
_chemical_formula_sum   'Ba2 Sr2 I8'
_cell_volume   622.39124200
_cell_formula_units_Z   2
loop_
 _symmetry_equiv_pos_site_id
 _symmetry_equiv_pos_as_xyz
  1  'x, y, z'
loop_
 _atom_site_type_symbol
 _atom_site_label
 _atom_site_symmetry_multiplicity
 _atom_site_fract_x
 _atom_site_fract_y
 _atom_site_fract_z
 _atom_site_occupancy
  Ba  Ba0  1  0.187769  0.812231  0.896648  1
  Ba  Ba1  1  0.812231  0.187769  0.396648  1
  Sr  Sr2  1  0.415462  0.584538  0.994650  1
  Sr  Sr3  1  0.584538  0.415462  0.494650  1
  I  I4  1  0.098970  0.901030  0.550009  1
  I  I5  1  0.455002  0.544998  0.375483  1
  I  I6  1  0.322021  0.677979  0.689157  1
  I  I7  1  0.290389  0.709611  0.203761  1
  I  I8  1  0.901030  0.098970  0.050009  1
  I  I9  1  0.709611  0.290389  0.703761  1
  I  I10  1  0.544998  0.455002  0.875483  1
  I  I11  1  0.677979  0.322021  0.189157  1
