# generated using pymatgen
data_Dy3Co29(Si2B5)2
_symmetry_space_group_name_H-M   'P 1'
_cell_length_a   11.13335525
_cell_length_b   11.13335525
_cell_length_c   7.82503129
_cell_angle_alpha   90.00000000
_cell_angle_beta   90.00000000
_cell_angle_gamma   90.00000000
_symmetry_Int_Tables_number   1
_chemical_formula_structural   Dy3Co29(Si2B5)2
_chemical_formula_sum   'Dy6 Co58 Si8 B20'
_cell_volume   969.92514051
_cell_formula_units_Z   2
loop_
 _symmetry_equiv_pos_site_id
 _symmetry_equiv_pos_as_xyz
  1  'x, y, z'
loop_
 _atom_site_type_symbol
 _atom_site_label
 _atom_site_symmetry_multiplicity
 _atom_site_fract_x
 _atom_site_fract_y
 _atom_site_fract_z
 _atom_site_occupancy
  Dy  Dy0  1  0.750000  0.250000  0.000000  1
  Dy  Dy1  1  0.250000  0.250000  0.000000  1
  Dy  Dy2  1  0.500000  0.500000  0.500000  1
  Dy  Dy3  1  0.750000  0.750000  0.000000  1
  Dy  Dy4  1  0.250000  0.750000  0.000000  1
  Dy  Dy5  1  0.000000  0.000000  0.500000  1
  Co  Co6  1  0.000000  0.272247  0.473998  1
  Co  Co7  1  0.338476  0.325700  0.335913  1
  Co  Co8  1  0.661524  0.325700  0.335913  1
  Co  Co9  1  0.000000  0.335529  0.970998  1
  Co  Co10  1  0.325700  0.338476  0.664087  1
  Co  Co11  1  0.674300  0.338476  0.664087  1
  Co  Co12  1  0.884353  0.384353  0.249784  1
  Co  Co13  1  0.115647  0.384353  0.249784  1
  Co  Co14  1  0.500000  0.389733  0.111243  1
  Co  Co15  1  0.889838  0.389838  0.698918  1
  Co  Co16  1  0.110162  0.389838  0.698918  1
  Co  Co17  1  0.835529  0.500000  0.970998  1
  Co  Co18  1  0.772247  0.500000  0.473998  1
  Co  Co19  1  0.000000  0.500000  0.467209  1
  Co  Co20  1  0.389733  0.500000  0.888757  1
  Co  Co21  1  0.610267  0.500000  0.888757  1
  Co  Co22  1  0.164471  0.500000  0.970998  1
  Co  Co23  1  0.227753  0.500000  0.473998  1
  Co  Co24  1  0.889838  0.610162  0.698918  1
  Co  Co25  1  0.110162  0.610162  0.698918  1
  Co  Co26  1  0.500000  0.610267  0.111243  1
  Co  Co27  1  0.884353  0.615647  0.249784  1
  Co  Co28  1  0.115647  0.615647  0.249784  1
  Co  Co29  1  0.325700  0.661524  0.664087  1
  Co  Co30  1  0.674300  0.661524  0.664087  1
  Co  Co31  1  0.000000  0.664471  0.970998  1
  Co  Co32  1  0.338476  0.674300  0.335913  1
  Co  Co33  1  0.661524  0.674300  0.335913  1
  Co  Co34  1  0.000000  0.727753  0.473998  1
  Co  Co35  1  0.500000  0.772247  0.526002  1
  Co  Co36  1  0.838476  0.825700  0.664087  1
  Co  Co37  1  0.161524  0.825700  0.664087  1
  Co  Co38  1  0.500000  0.835529  0.029002  1
  Co  Co39  1  0.825700  0.838476  0.335913  1
  Co  Co40  1  0.174300  0.838476  0.335913  1
  Co  Co41  1  0.384353  0.884353  0.750216  1
  Co  Co42  1  0.615647  0.884353  0.750216  1
  Co  Co43  1  0.000000  0.889733  0.888757  1
  Co  Co44  1  0.389838  0.889838  0.301082  1
  Co  Co45  1  0.610162  0.889838  0.301082  1
  Co  Co46  1  0.664471  0.000000  0.029002  1
  Co  Co47  1  0.727753  0.000000  0.526002  1
  Co  Co48  1  0.889733  0.000000  0.111243  1
  Co  Co49  1  0.110267  0.000000  0.111243  1
  Co  Co50  1  0.272247  0.000000  0.526002  1
  Co  Co51  1  0.335529  0.000000  0.029002  1
  Co  Co52  1  0.500000  0.000000  0.532791  1
  Co  Co53  1  0.389838  0.110162  0.301082  1
  Co  Co54  1  0.610162  0.110162  0.301082  1
  Co  Co55  1  0.000000  0.110267  0.888757  1
  Co  Co56  1  0.384353  0.115647  0.750216  1
  Co  Co57  1  0.615647  0.115647  0.750216  1
  Co  Co58  1  0.825700  0.161524  0.335913  1
  Co  Co59  1  0.174300  0.161524  0.335913  1
  Co  Co60  1  0.500000  0.164471  0.029002  1
  Co  Co61  1  0.838476  0.174300  0.664087  1
  Co  Co62  1  0.161524  0.174300  0.664087  1
  Co  Co63  1  0.500000  0.227753  0.526002  1
  Si  Si64  1  0.500000  0.318046  0.824754  1
  Si  Si65  1  0.318046  0.500000  0.175246  1
  Si  Si66  1  0.681954  0.500000  0.175246  1
  Si  Si67  1  0.500000  0.681954  0.824754  1
  Si  Si68  1  0.000000  0.818046  0.175246  1
  Si  Si69  1  0.818046  0.000000  0.824754  1
  Si  Si70  1  0.181954  0.000000  0.824754  1
  Si  Si71  1  0.000000  0.181954  0.175246  1
  B  B72  1  0.813442  0.313442  0.482273  1
  B  B73  1  0.186558  0.313442  0.482273  1
  B  B74  1  0.500000  0.256289  0.263342  1
  B  B75  1  0.000000  0.500000  0.107990  1
  B  B76  1  0.000000  0.500000  0.851084  1
  B  B77  1  0.256289  0.500000  0.736658  1
  B  B78  1  0.743711  0.500000  0.736658  1
  B  B79  1  0.500000  0.743711  0.263342  1
  B  B80  1  0.813442  0.686558  0.482273  1
  B  B81  1  0.186558  0.686558  0.482273  1
  B  B82  1  0.313442  0.813442  0.517727  1
  B  B83  1  0.686558  0.813442  0.517727  1
  B  B84  1  0.000000  0.756289  0.736658  1
  B  B85  1  0.756289  0.000000  0.263342  1
  B  B86  1  0.243711  0.000000  0.263342  1
  B  B87  1  0.500000  0.000000  0.148916  1
  B  B88  1  0.500000  0.000000  0.892010  1
  B  B89  1  0.000000  0.243711  0.736658  1
  B  B90  1  0.686558  0.186558  0.517727  1
  B  B91  1  0.313442  0.186558  0.517727  1
