# generated using pymatgen
data_LiMn5O3F5
_symmetry_space_group_name_H-M   'P 1'
_cell_length_a   6.42728982
_cell_length_b   6.42728982
_cell_length_c   6.42728982
_cell_angle_alpha   60.27661146
_cell_angle_beta   60.27661146
_cell_angle_gamma   60.27661146
_symmetry_Int_Tables_number   1
_chemical_formula_structural   LiMn5O3F5
_chemical_formula_sum   'Li1 Mn5 O3 F5'
_cell_volume   188.92048578
_cell_formula_units_Z   1
loop_
 _symmetry_equiv_pos_site_id
 _symmetry_equiv_pos_as_xyz
  1  'x, y, z'
loop_
 _atom_site_type_symbol
 _atom_site_label
 _atom_site_symmetry_multiplicity
 _atom_site_fract_x
 _atom_site_fract_y
 _atom_site_fract_z
 _atom_site_occupancy
  Li  Li0  1  0.246755  0.246755  0.246755  1
  Mn  Mn1  1  0.016336  0.016336  0.016336  1
  Mn  Mn2  1  0.621513  0.110101  0.621513  1
  Mn  Mn3  1  0.621513  0.621513  0.110101  1
  Mn  Mn4  1  0.631858  0.631858  0.631858  1
  Mn  Mn5  1  0.110101  0.621513  0.621513  1
  O  O6  1  0.868446  0.405110  0.868446  1
  O  O7  1  0.868446  0.868446  0.405110  1
  O  O8  1  0.405110  0.868446  0.868446  1
  F  F9  1  0.375755  0.375755  0.375755  1
  F  F10  1  0.844639  0.382398  0.382398  1
  F  F11  1  0.382398  0.844639  0.382398  1
  F  F12  1  0.382398  0.382398  0.844639  1
  F  F13  1  0.874731  0.874731  0.874731  1
