# generated using pymatgen
data_Li4MnCr3O8
_symmetry_space_group_name_H-M   'P 1'
_cell_length_a   5.95795621
_cell_length_b   5.95795621
_cell_length_c   5.90544626
_cell_angle_alpha   60.53089499
_cell_angle_beta   119.46910501
_cell_angle_gamma   120.72984591
_symmetry_Int_Tables_number   1
_chemical_formula_structural   Li4MnCr3O8
_chemical_formula_sum   'Li4 Mn1 Cr3 O8'
_cell_volume   148.55290203
_cell_formula_units_Z   1
loop_
 _symmetry_equiv_pos_site_id
 _symmetry_equiv_pos_as_xyz
  1  'x, y, z'
loop_
 _atom_site_type_symbol
 _atom_site_label
 _atom_site_symmetry_multiplicity
 _atom_site_fract_x
 _atom_site_fract_y
 _atom_site_fract_z
 _atom_site_occupancy
  Li  Li0  1  0.500000  0.500000  0.500000  1
  Li  Li1  1  0.500000  0.000000  0.000000  1
  Li  Li2  1  0.000000  0.500000  0.000000  1
  Li  Li3  1  0.000000  0.000000  0.500000  1
  Mn  Mn4  1  0.000000  0.000000  0.000000  1
  Cr  Cr5  1  0.000000  0.500000  0.500000  1
  Cr  Cr6  1  0.500000  0.000000  0.500000  1
  Cr  Cr7  1  0.500000  0.500000  0.000000  1
  O  O8  1  0.261735  0.738265  0.747685  1
  O  O9  1  0.255180  0.232210  0.241628  1
  O  O10  1  0.767790  0.744820  0.241628  1
  O  O11  1  0.738265  0.261735  0.252315  1
  O  O12  1  0.741633  0.258367  0.725201  1
  O  O13  1  0.744820  0.767790  0.758372  1
  O  O14  1  0.232210  0.255180  0.758372  1
  O  O15  1  0.258367  0.741633  0.274799  1
