# generated using pymatgen
data_CoH22C3(N3O4)2
_symmetry_space_group_name_H-M   'P 1'
_cell_length_a   9.70730234
_cell_length_b   10.29161495
_cell_length_c   13.24145790
_cell_angle_alpha   90.00000000
_cell_angle_beta   90.00000000
_cell_angle_gamma   90.00000000
_symmetry_Int_Tables_number   1
_chemical_formula_structural   CoH22C3(N3O4)2
_chemical_formula_sum   'Co4 H88 C12 N24 O32'
_cell_volume   1322.87219859
_cell_formula_units_Z   4
loop_
 _symmetry_equiv_pos_site_id
 _symmetry_equiv_pos_as_xyz
  1  'x, y, z'
loop_
 _atom_site_type_symbol
 _atom_site_label
 _atom_site_symmetry_multiplicity
 _atom_site_fract_x
 _atom_site_fract_y
 _atom_site_fract_z
 _atom_site_occupancy
  Co  Co0  1  0.500000  0.000000  0.000000  1
  Co  Co1  1  0.000000  0.500000  0.500000  1
  Co  Co2  1  0.000000  0.500000  0.000000  1
  Co  Co3  1  0.500000  0.000000  0.500000  1
  H  H4  1  0.640513  0.013847  0.837898  1
  H  H5  1  0.359487  0.986153  0.837898  1
  H  H6  1  0.140513  0.486153  0.662102  1
  H  H7  1  0.859487  0.513847  0.662102  1
  H  H8  1  0.359487  0.986153  0.162102  1
  H  H9  1  0.640513  0.013847  0.162102  1
  H  H10  1  0.859487  0.513847  0.337898  1
  H  H11  1  0.140513  0.486153  0.337898  1
  H  H12  1  0.601555  0.856960  0.861005  1
  H  H13  1  0.398445  0.143040  0.861005  1
  H  H14  1  0.101555  0.643040  0.638995  1
  H  H15  1  0.898445  0.356960  0.638995  1
  H  H16  1  0.398445  0.143040  0.138995  1
  H  H17  1  0.601555  0.856960  0.138995  1
  H  H18  1  0.898445  0.356960  0.361005  1
  H  H19  1  0.101555  0.643040  0.361005  1
  H  H20  1  0.727390  0.929599  0.923739  1
  H  H21  1  0.272610  0.070401  0.923739  1
  H  H22  1  0.227390  0.570401  0.576261  1
  H  H23  1  0.772610  0.429599  0.576261  1
  H  H24  1  0.272610  0.070401  0.076261  1
  H  H25  1  0.727390  0.929599  0.076261  1
  H  H26  1  0.772610  0.429599  0.423739  1
  H  H27  1  0.227390  0.570401  0.423739  1
  H  H28  1  0.564661  0.226580  0.937779  1
  H  H29  1  0.435339  0.773420  0.937779  1
  H  H30  1  0.064661  0.273420  0.562221  1
  H  H31  1  0.935339  0.726580  0.562221  1
  H  H32  1  0.435339  0.773420  0.062221  1
  H  H33  1  0.564661  0.226580  0.062221  1
  H  H34  1  0.935339  0.726580  0.437779  1
  H  H35  1  0.064661  0.273420  0.437779  1
  H  H36  1  0.695693  0.159141  0.000000  1
  H  H37  1  0.304307  0.840859  0.000000  1
  H  H38  1  0.195693  0.340859  0.500000  1
  H  H39  1  0.804307  0.659141  0.500000  1
  H  H40  1  0.023122  0.366032  0.840901  1
  H  H41  1  0.976878  0.633968  0.840901  1
  H  H42  1  0.523122  0.133968  0.659099  1
  H  H43  1  0.476878  0.866032  0.659099  1
  H  H44  1  0.976878  0.633968  0.159099  1
  H  H45  1  0.023122  0.366032  0.159099  1
  H  H46  1  0.476878  0.866032  0.340901  1
  H  H47  1  0.523122  0.133968  0.340901  1
  H  H48  1  0.919130  0.287823  0.920967  1
  H  H49  1  0.080870  0.712177  0.920967  1
  H  H50  1  0.419130  0.212177  0.579033  1
  H  H51  1  0.580870  0.787823  0.579033  1
  H  H52  1  0.080870  0.712177  0.079033  1
  H  H53  1  0.919130  0.287823  0.079033  1
  H  H54  1  0.580870  0.787823  0.420967  1
  H  H55  1  0.419130  0.212177  0.420967  1
  H  H56  1  0.857173  0.410043  0.854660  1
  H  H57  1  0.142827  0.589957  0.854660  1
  H  H58  1  0.357173  0.089957  0.645340  1
  H  H59  1  0.642827  0.910043  0.645340  1
  H  H60  1  0.142827  0.589957  0.145340  1
  H  H61  1  0.857173  0.410043  0.145340  1
  H  H62  1  0.642827  0.910043  0.354660  1
  H  H63  1  0.357173  0.089957  0.354660  1
  H  H64  1  0.756660  0.562027  0.937795  1
  H  H65  1  0.243340  0.437973  0.937795  1
  H  H66  1  0.256660  0.937973  0.562205  1
  H  H67  1  0.743340  0.062027  0.562205  1
  H  H68  1  0.243340  0.437973  0.062205  1
  H  H69  1  0.756660  0.562027  0.062205  1
  H  H70  1  0.743340  0.062027  0.437795  1
  H  H71  1  0.256660  0.937973  0.437795  1
  H  H72  1  0.832035  0.683458  0.000000  1
  H  H73  1  0.167965  0.316542  0.000000  1
  H  H74  1  0.332035  0.816542  0.500000  1
  H  H75  1  0.667965  0.183458  0.500000  1
  H  H76  1  0.769612  0.145639  0.721978  1
  H  H77  1  0.230388  0.854361  0.721978  1
  H  H78  1  0.269612  0.354361  0.778022  1
  H  H79  1  0.730388  0.645639  0.778022  1
  H  H80  1  0.230388  0.854361  0.278022  1
  H  H81  1  0.769612  0.145639  0.278022  1
  H  H82  1  0.730388  0.645639  0.221978  1
  H  H83  1  0.269612  0.354361  0.221978  1
  H  H84  1  0.666328  0.244600  0.773574  1
  H  H85  1  0.333672  0.755400  0.773574  1
  H  H86  1  0.166328  0.255400  0.726426  1
  H  H87  1  0.833672  0.744600  0.726426  1
  H  H88  1  0.333672  0.755400  0.226426  1
  H  H89  1  0.666328  0.244600  0.226426  1
  H  H90  1  0.833672  0.744600  0.273574  1
  H  H91  1  0.166328  0.255400  0.273574  1
  C  C92  1  0.998763  0.076237  0.000000  1
  C  C93  1  0.001237  0.923763  0.000000  1
  C  C94  1  0.498763  0.423763  0.500000  1
  C  C95  1  0.501237  0.576237  0.500000  1
  C  C96  1  0.525547  0.427646  0.831550  1
  C  C97  1  0.474453  0.572354  0.831550  1
  C  C98  1  0.025547  0.072354  0.668450  1
  C  C99  1  0.974453  0.927646  0.668450  1
  C  C100  1  0.474453  0.572354  0.168450  1
  C  C101  1  0.525547  0.427646  0.168450  1
  C  C102  1  0.974453  0.927646  0.331550  1
  C  C103  1  0.025547  0.072354  0.331550  1
  N  N104  1  0.630543  0.943575  0.893410  1
  N  N105  1  0.369457  0.056425  0.893410  1
  N  N106  1  0.130543  0.556425  0.606590  1
  N  N107  1  0.869457  0.443575  0.606590  1
  N  N108  1  0.369457  0.056425  0.106590  1
  N  N109  1  0.630543  0.943575  0.106590  1
  N  N110  1  0.869457  0.443575  0.393410  1
  N  N111  1  0.130543  0.556425  0.393410  1
  N  N112  1  0.590406  0.172132  0.000000  1
  N  N113  1  0.409594  0.827868  0.000000  1
  N  N114  1  0.090406  0.327868  0.500000  1
  N  N115  1  0.909594  0.672132  0.500000  1
  N  N116  1  0.943336  0.378135  0.892027  1
  N  N117  1  0.056664  0.621865  0.892027  1
  N  N118  1  0.443336  0.121865  0.607973  1
  N  N119  1  0.556664  0.878135  0.607973  1
  N  N120  1  0.056664  0.621865  0.107973  1
  N  N121  1  0.943336  0.378135  0.107973  1
  N  N122  1  0.556664  0.878135  0.392027  1
  N  N123  1  0.443336  0.121865  0.392027  1
  N  N124  1  0.815460  0.584180  0.000000  1
  N  N125  1  0.184540  0.415820  0.000000  1
  N  N126  1  0.315460  0.915820  0.500000  1
  N  N127  1  0.684540  0.084180  0.500000  1
  O  O128  1  0.881633  0.130915  0.000000  1
  O  O129  1  0.118367  0.869085  0.000000  1
  O  O130  1  0.381633  0.369085  0.500000  1
  O  O131  1  0.618367  0.630915  0.500000  1
  O  O132  1  0.113422  0.135097  0.000000  1
  O  O133  1  0.886578  0.864903  0.000000  1
  O  O134  1  0.613422  0.364903  0.500000  1
  O  O135  1  0.386578  0.635097  0.500000  1
  O  O136  1  0.654468  0.408227  0.827597  1
  O  O137  1  0.345532  0.591773  0.827597  1
  O  O138  1  0.154468  0.091773  0.672403  1
  O  O139  1  0.845532  0.908227  0.672403  1
  O  O140  1  0.345532  0.591773  0.172403  1
  O  O141  1  0.654468  0.408227  0.172403  1
  O  O142  1  0.845532  0.908227  0.327597  1
  O  O143  1  0.154468  0.091773  0.327597  1
  O  O144  1  0.434734  0.339072  0.836334  1
  O  O145  1  0.565266  0.660928  0.836334  1
  O  O146  1  0.934734  0.160928  0.663666  1
  O  O147  1  0.065266  0.839072  0.663666  1
  O  O148  1  0.565266  0.660928  0.163666  1
  O  O149  1  0.434734  0.339072  0.163666  1
  O  O150  1  0.065266  0.839072  0.336334  1
  O  O151  1  0.934734  0.160928  0.336334  1
  O  O152  1  0.673928  0.154141  0.748041  1
  O  O153  1  0.326072  0.845859  0.748041  1
  O  O154  1  0.173928  0.345859  0.751959  1
  O  O155  1  0.826072  0.654141  0.751959  1
  O  O156  1  0.326072  0.845859  0.251959  1
  O  O157  1  0.673928  0.154141  0.251959  1
  O  O158  1  0.826072  0.654141  0.248041  1
  O  O159  1  0.173928  0.345859  0.248041  1
