# generated using pymatgen
data_BaYF5
_symmetry_space_group_name_H-M   'P 1'
_cell_length_a   6.41871043
_cell_length_b   6.41871043
_cell_length_c   8.70208292
_cell_angle_alpha   69.59631428
_cell_angle_beta   110.40368572
_cell_angle_gamma   108.49705606
_symmetry_Int_Tables_number   1
_chemical_formula_structural   BaYF5
_chemical_formula_sum   'Ba2 Y2 F10'
_cell_volume   307.03199751
_cell_formula_units_Z   2
loop_
 _symmetry_equiv_pos_site_id
 _symmetry_equiv_pos_as_xyz
  1  'x, y, z'
loop_
 _atom_site_type_symbol
 _atom_site_label
 _atom_site_symmetry_multiplicity
 _atom_site_fract_x
 _atom_site_fract_y
 _atom_site_fract_z
 _atom_site_occupancy
  Ba  Ba0  1  0.542249  0.542249  0.750000  1
  Ba  Ba1  1  0.457751  0.457751  0.250000  1
  Y  Y2  1  1.000000  0.000000  0.500000  1
  Y  Y3  1  0.000000  0.000000  0.000000  1
  F  F4  1  0.250488  0.794795  0.618772  1
  F  F5  1  0.303088  0.280289  0.972717  1
  F  F6  1  0.205205  0.749512  0.118772  1
  F  F7  1  0.925521  0.925521  0.750000  1
  F  F8  1  0.280289  0.303088  0.527283  1
  F  F9  1  0.719711  0.696912  0.472717  1
  F  F10  1  0.074479  0.074479  0.250000  1
  F  F11  1  0.794795  0.250488  0.881228  1
  F  F12  1  0.696912  0.719711  0.027283  1
  F  F13  1  0.749512  0.205204  0.381228  1
