# generated using pymatgen
data_Ta2MnO6
_symmetry_space_group_name_H-M   'P 1'
_cell_length_a   7.14587101
_cell_length_b   5.81902287
_cell_length_c   10.85911648
_cell_angle_alpha   90.00000000
_cell_angle_beta   104.37657244
_cell_angle_gamma   90.00000000
_symmetry_Int_Tables_number   1
_chemical_formula_structural   Ta2MnO6
_chemical_formula_sum   'Ta8 Mn4 O24'
_cell_volume   437.40344424
_cell_formula_units_Z   4
loop_
 _symmetry_equiv_pos_site_id
 _symmetry_equiv_pos_as_xyz
  1  'x, y, z'
loop_
 _atom_site_type_symbol
 _atom_site_label
 _atom_site_symmetry_multiplicity
 _atom_site_fract_x
 _atom_site_fract_y
 _atom_site_fract_z
 _atom_site_occupancy
  Ta  Ta0  1  0.836243  0.337005  0.422012  1
  Ta  Ta1  1  0.163757  0.662995  0.577988  1
  Ta  Ta2  1  0.000000  0.149194  0.750000  1
  Ta  Ta3  1  0.500000  0.320334  0.750000  1
  Ta  Ta4  1  0.836243  0.662995  0.922012  1
  Ta  Ta5  1  0.163757  0.337005  0.077988  1
  Ta  Ta6  1  0.000000  0.850806  0.250000  1
  Ta  Ta7  1  0.500000  0.679666  0.250000  1
  Mn  Mn8  1  0.344557  0.176814  0.418093  1
  Mn  Mn9  1  0.655443  0.823186  0.581907  1
  Mn  Mn10  1  0.344557  0.823186  0.918093  1
  Mn  Mn11  1  0.655443  0.176814  0.081907  1
  O  O12  1  0.138342  0.866732  0.434347  1
  O  O13  1  0.119377  0.394190  0.451515  1
  O  O14  1  0.561578  0.397647  0.378457  1
  O  O15  1  0.880623  0.605810  0.548485  1
  O  O16  1  0.512148  0.878953  0.385631  1
  O  O17  1  0.861658  0.133268  0.565653  1
  O  O18  1  0.487852  0.121047  0.614369  1
  O  O19  1  0.834641  0.885862  0.785320  1
  O  O20  1  0.138342  0.133268  0.934347  1
  O  O21  1  0.438422  0.602353  0.621543  1
  O  O22  1  0.800987  0.370544  0.781358  1
  O  O23  1  0.119377  0.605810  0.951515  1
  O  O24  1  0.199013  0.370544  0.718642  1
  O  O25  1  0.561578  0.602353  0.878457  1
  O  O26  1  0.880623  0.394190  0.048485  1
  O  O27  1  0.165359  0.885862  0.714680  1
  O  O28  1  0.512148  0.121047  0.885631  1
  O  O29  1  0.861658  0.866732  0.065653  1
  O  O30  1  0.487852  0.878953  0.114369  1
  O  O31  1  0.834641  0.114138  0.285320  1
  O  O32  1  0.438422  0.397647  0.121543  1
  O  O33  1  0.800987  0.629456  0.281358  1
  O  O34  1  0.199013  0.629456  0.218642  1
  O  O35  1  0.165359  0.114138  0.214680  1
