# generated using pymatgen
data_Fe4O7F
_symmetry_space_group_name_H-M   'P 1'
_cell_length_a   9.66968782
_cell_length_b   9.66968782
_cell_length_c   4.59238314
_cell_angle_alpha   88.36988835
_cell_angle_beta   91.63011165
_cell_angle_gamma   143.54555483
_symmetry_Int_Tables_number   1
_chemical_formula_structural   Fe4O7F
_chemical_formula_sum   'Fe8 O14 F2'
_cell_volume   255.02850065
_cell_formula_units_Z   2
loop_
 _symmetry_equiv_pos_site_id
 _symmetry_equiv_pos_as_xyz
  1  'x, y, z'
loop_
 _atom_site_type_symbol
 _atom_site_label
 _atom_site_symmetry_multiplicity
 _atom_site_fract_x
 _atom_site_fract_y
 _atom_site_fract_z
 _atom_site_occupancy
  Fe  Fe0  1  0.872879  0.127121  0.505928  1
  Fe  Fe1  1  0.628273  0.371727  0.486390  1
  Fe  Fe2  1  0.124545  0.875455  0.501431  1
  Fe  Fe3  1  0.380925  0.619075  0.479805  1
  Fe  Fe4  1  0.501396  0.007036  0.006712  1
  Fe  Fe5  1  0.239277  0.241187  0.008454  1
  Fe  Fe6  1  0.992964  0.498604  0.006712  1
  Fe  Fe7  1  0.758813  0.760723  0.008454  1
  O  O8  1  0.949521  0.050479  0.200770  1
  O  O9  1  0.455390  0.544610  0.182095  1
  O  O10  1  0.699596  0.300404  0.193214  1
  O  O11  1  0.202054  0.797946  0.196969  1
  O  O12  1  0.573042  0.920166  0.309029  1
  O  O13  1  0.827801  0.673594  0.306721  1
  O  O14  1  0.079834  0.426958  0.309029  1
  O  O15  1  0.326406  0.172199  0.306721  1
  O  O16  1  0.925758  0.579669  0.691497  1
  O  O17  1  0.420331  0.074242  0.691497  1
  O  O18  1  0.174916  0.327458  0.694062  1
  O  O19  1  0.672542  0.825084  0.694062  1
  O  O20  1  0.049106  0.950894  0.805976  1
  O  O21  1  0.795839  0.204161  0.808960  1
  F  F22  1  0.551127  0.448873  0.797782  1
  F  F23  1  0.300425  0.699575  0.808212  1
