# generated using pymatgen
data_NaTl3(SO3)2
_symmetry_space_group_name_H-M   'P 1'
_cell_length_a   5.99686662
_cell_length_b   5.99686662
_cell_length_c   7.22867546
_cell_angle_alpha   90.00000000
_cell_angle_beta   90.00000000
_cell_angle_gamma   120.00000000
_symmetry_Int_Tables_number   1
_chemical_formula_structural   NaTl3(SO3)2
_chemical_formula_sum   'Na1 Tl3 S2 O6'
_cell_volume   225.13247064
_cell_formula_units_Z   1
loop_
 _symmetry_equiv_pos_site_id
 _symmetry_equiv_pos_as_xyz
  1  'x, y, z'
loop_
 _atom_site_type_symbol
 _atom_site_label
 _atom_site_symmetry_multiplicity
 _atom_site_fract_x
 _atom_site_fract_y
 _atom_site_fract_z
 _atom_site_occupancy
  Na  Na0  1  0.000000  0.000000  0.500000  1
  Tl  Tl1  1  0.666667  0.333333  0.319785  1
  Tl  Tl2  1  0.333333  0.666667  0.680215  1
  Tl  Tl3  1  0.000000  0.000000  0.000000  1
  S  S4  1  0.333333  0.666667  0.212703  1
  S  S5  1  0.666667  0.333333  0.787297  1
  O  O6  1  0.393090  0.196545  0.701897  1
  O  O7  1  0.803455  0.196545  0.701897  1
  O  O8  1  0.803455  0.606910  0.701897  1
  O  O9  1  0.196545  0.803455  0.298103  1
  O  O10  1  0.606910  0.803455  0.298103  1
  O  O11  1  0.196545  0.393090  0.298103  1
