# generated using pymatgen
data_Li4Mn3V2Cr3O16
_symmetry_space_group_name_H-M   'P 1'
_cell_length_a   5.86221719
_cell_length_b   5.88593099
_cell_length_c   9.50950769
_cell_angle_alpha   90.46434627
_cell_angle_beta   90.05653933
_cell_angle_gamma   119.24952337
_symmetry_Int_Tables_number   1
_chemical_formula_structural   Li4Mn3V2Cr3O16
_chemical_formula_sum   'Li4 Mn3 V2 Cr3 O16'
_cell_volume   286.27230353
_cell_formula_units_Z   1
loop_
 _symmetry_equiv_pos_site_id
 _symmetry_equiv_pos_as_xyz
  1  'x, y, z'
loop_
 _atom_site_type_symbol
 _atom_site_label
 _atom_site_symmetry_multiplicity
 _atom_site_fract_x
 _atom_site_fract_y
 _atom_site_fract_z
 _atom_site_occupancy
  Li  Li0  1  0.333829  0.663347  0.100968  1
  Li  Li1  1  0.002067  0.007194  0.004292  1
  Li  Li2  1  0.000758  0.004170  0.505926  1
  Li  Li3  1  0.663593  0.323910  0.605021  1
  Mn  Mn4  1  0.170690  0.341344  0.785027  1
  Mn  Mn5  1  0.336883  0.171272  0.286687  1
  Mn  Mn6  1  0.828374  0.168017  0.285462  1
  V  V7  1  0.330889  0.677623  0.512664  1
  V  V8  1  0.669696  0.347218  0.009482  1
  Cr  Cr9  1  0.169354  0.830155  0.787390  1
  Cr  Cr10  1  0.661514  0.830107  0.787082  1
  Cr  Cr11  1  0.828663  0.659394  0.285752  1
  O  O12  1  0.154966  0.805342  0.411698  1
  O  O13  1  0.476381  0.955427  0.656195  1
  O  O14  1  0.329849  0.657221  0.892690  1
  O  O15  1  0.003761  0.010063  0.692290  1
  O  O16  1  0.000039  0.002059  0.192454  1
  O  O17  1  0.670594  0.840810  0.401719  1
  O  O18  1  0.038097  0.514326  0.661655  1
  O  O19  1  0.470266  0.511997  0.658317  1
  O  O20  1  0.837392  0.671604  0.903752  1
  O  O21  1  0.162135  0.325776  0.399508  1
  O  O22  1  0.539615  0.493232  0.145029  1
  O  O23  1  0.960623  0.468965  0.161978  1
  O  O24  1  0.664643  0.327091  0.391294  1
  O  O25  1  0.335381  0.175942  0.902368  1
  O  O26  1  0.522633  0.038830  0.162352  1
  O  O27  1  0.837017  0.177563  0.903111  1
