# generated using pymatgen
data_Li3V3(BO5)2
_symmetry_space_group_name_H-M   'P 1'
_cell_length_a   3.01176979
_cell_length_b   9.42226404
_cell_length_c   12.00100624
_cell_angle_alpha   90.00000000
_cell_angle_beta   90.14451262
_cell_angle_gamma   90.00000000
_symmetry_Int_Tables_number   1
_chemical_formula_structural   Li3V3(BO5)2
_chemical_formula_sum   'Li6 V6 B4 O20'
_cell_volume   340.55975424
_cell_formula_units_Z   2
loop_
 _symmetry_equiv_pos_site_id
 _symmetry_equiv_pos_as_xyz
  1  'x, y, z'
loop_
 _atom_site_type_symbol
 _atom_site_label
 _atom_site_symmetry_multiplicity
 _atom_site_fract_x
 _atom_site_fract_y
 _atom_site_fract_z
 _atom_site_occupancy
  Li  Li0  1  0.000000  0.000000  0.000000  1
  Li  Li1  1  0.001672  0.006725  0.722779  1
  Li  Li2  1  0.001672  0.493275  0.222779  1
  Li  Li3  1  0.000000  0.500000  0.500000  1
  Li  Li4  1  0.998328  0.506725  0.777221  1
  Li  Li5  1  0.998328  0.993275  0.277221  1
  V  V6  1  0.500000  0.000000  0.500000  1
  V  V7  1  0.475505  0.766018  0.885426  1
  V  V8  1  0.475505  0.733982  0.385426  1
  V  V9  1  0.500000  0.500000  0.000000  1
  V  V10  1  0.524495  0.266018  0.614574  1
  V  V11  1  0.524495  0.233982  0.114574  1
  B  B12  1  0.504309  0.764366  0.138235  1
  B  B13  1  0.504309  0.735634  0.638235  1
  B  B14  1  0.495691  0.264366  0.361765  1
  B  B15  1  0.495691  0.235634  0.861765  1
  O  O16  1  0.006111  0.877741  0.854236  1
  O  O17  1  0.993078  0.878712  0.430984  1
  O  O18  1  0.504232  0.883208  0.637172  1
  O  O19  1  0.497743  0.835151  0.240126  1
  O  O20  1  0.511532  0.844106  0.040815  1
  O  O21  1  0.511532  0.655894  0.540815  1
  O  O22  1  0.497743  0.664849  0.740126  1
  O  O23  1  0.504232  0.616792  0.137172  1
  O  O24  1  0.993078  0.621288  0.930984  1
  O  O25  1  0.006111  0.622259  0.354236  1
  O  O26  1  0.993889  0.377741  0.645764  1
  O  O27  1  0.006922  0.378712  0.069016  1
  O  O28  1  0.495768  0.383208  0.862828  1
  O  O29  1  0.502257  0.335151  0.259874  1
  O  O30  1  0.488468  0.344106  0.459185  1
  O  O31  1  0.488468  0.155894  0.959185  1
  O  O32  1  0.502257  0.164849  0.759874  1
  O  O33  1  0.495768  0.116792  0.362828  1
  O  O34  1  0.006922  0.121288  0.569016  1
  O  O35  1  0.993889  0.122259  0.145764  1
