# generated using pymatgen
data_Li6MnCr3(PO4)6
_symmetry_space_group_name_H-M   'P 1'
_cell_length_a   8.48463279
_cell_length_b   8.50940054
_cell_length_c   8.63222788
_cell_angle_alpha   61.28766300
_cell_angle_beta   62.04829112
_cell_angle_gamma   62.03776151
_symmetry_Int_Tables_number   1
_chemical_formula_structural   Li6MnCr3(PO4)6
_chemical_formula_sum   'Li6 Mn1 Cr3 P6 O24'
_cell_volume   458.33005646
_cell_formula_units_Z   1
loop_
 _symmetry_equiv_pos_site_id
 _symmetry_equiv_pos_as_xyz
  1  'x, y, z'
loop_
 _atom_site_type_symbol
 _atom_site_label
 _atom_site_symmetry_multiplicity
 _atom_site_fract_x
 _atom_site_fract_y
 _atom_site_fract_z
 _atom_site_occupancy
  Li  Li0  1  0.988046  0.023486  0.016637  1
  Li  Li1  1  0.353295  0.752872  0.144475  1
  Li  Li2  1  0.492814  0.475319  0.503746  1
  Li  Li3  1  0.651258  0.240252  0.851152  1
  Li  Li4  1  0.844926  0.663972  0.252709  1
  Li  Li5  1  0.248522  0.843480  0.647753  1
  Mn  Mn6  1  0.856553  0.853437  0.849566  1
  Cr  Cr7  1  0.139191  0.140452  0.145238  1
  Cr  Cr8  1  0.354038  0.358782  0.362697  1
  Cr  Cr9  1  0.645387  0.642894  0.645978  1
  P  P10  1  0.450003  0.048504  0.752249  1
  P  P11  1  0.749294  0.451732  0.047214  1
  P  P12  1  0.051053  0.749509  0.449030  1
  P  P13  1  0.955192  0.249170  0.540172  1
  P  P14  1  0.250168  0.544004  0.962700  1
  P  P15  1  0.537889  0.958033  0.254148  1
  O  O16  1  0.490059  0.126988  0.302974  1
  O  O17  1  0.116550  0.300150  0.515146  1
  O  O18  1  0.267220  0.046372  0.922043  1
  O  O19  1  0.295720  0.532254  0.121212  1
  O  O20  1  0.429116  0.240496  0.594165  1
  O  O21  1  0.611205  0.019679  0.811908  1
  O  O22  1  0.908085  0.262240  0.069386  1
  O  O23  1  0.580384  0.453150  0.229481  1
  O  O24  1  0.246582  0.593689  0.424090  1
  O  O25  1  0.983899  0.203571  0.377510  1
  O  O26  1  0.933639  0.083162  0.733907  1
  O  O27  1  0.208693  0.371630  0.002483  1
  O  O28  1  0.809550  0.616475  0.009844  1
  O  O29  1  0.068233  0.906107  0.253509  1
  O  O30  1  0.029122  0.811320  0.598640  1
  O  O31  1  0.758929  0.406891  0.571458  1
  O  O32  1  0.410000  0.566844  0.770335  1
  O  O33  1  0.087183  0.736047  0.931180  1
  O  O34  1  0.381673  0.969545  0.201367  1
  O  O35  1  0.562402  0.763893  0.418025  1
  O  O36  1  0.692839  0.481067  0.887289  1
  O  O37  1  0.732607  0.939798  0.099817  1
  O  O38  1  0.890661  0.686359  0.485161  1
  O  O39  1  0.489016  0.886374  0.692609  1
