# generated using pymatgen
data_Li9Nb3P8O29
_symmetry_space_group_name_H-M   'P 1'
_cell_length_a   10.07478282
_cell_length_b   10.07478282
_cell_length_c   13.98011517
_cell_angle_alpha   90.00000000
_cell_angle_beta   90.00000000
_cell_angle_gamma   120.00000000
_symmetry_Int_Tables_number   1
_chemical_formula_structural   Li9Nb3P8O29
_chemical_formula_sum   'Li18 Nb6 P16 O58'
_cell_volume   1228.88931174
_cell_formula_units_Z   2
loop_
 _symmetry_equiv_pos_site_id
 _symmetry_equiv_pos_as_xyz
  1  'x, y, z'
loop_
 _atom_site_type_symbol
 _atom_site_label
 _atom_site_symmetry_multiplicity
 _atom_site_fract_x
 _atom_site_fract_y
 _atom_site_fract_z
 _atom_site_occupancy
  Li  Li0  1  0.000000  0.000000  0.500000  1
  Li  Li1  1  0.000000  0.000000  0.000000  1
  Li  Li2  1  0.329830  0.230067  0.564100  1
  Li  Li3  1  0.329830  0.099763  0.064100  1
  Li  Li4  1  0.769933  0.670170  0.064100  1
  Li  Li5  1  0.666667  0.333333  0.382345  1
  Li  Li6  1  0.666667  0.333333  0.882345  1
  Li  Li7  1  0.900237  0.670170  0.564100  1
  Li  Li8  1  0.769933  0.099763  0.564100  1
  Li  Li9  1  0.099763  0.769933  0.935900  1
  Li  Li10  1  0.900237  0.230067  0.064100  1
  Li  Li11  1  0.230067  0.900237  0.435900  1
  Li  Li12  1  0.099763  0.329830  0.435900  1
  Li  Li13  1  0.333333  0.666667  0.617655  1
  Li  Li14  1  0.333333  0.666667  0.117655  1
  Li  Li15  1  0.230067  0.329830  0.935900  1
  Li  Li16  1  0.670170  0.900237  0.935900  1
  Li  Li17  1  0.670170  0.769933  0.435900  1
  Nb  Nb18  1  0.433992  0.433992  0.750000  1
  Nb  Nb19  1  0.566008  0.566008  0.250000  1
  Nb  Nb20  1  0.433992  0.000000  0.250000  1
  Nb  Nb21  1  0.566008  0.000000  0.750000  1
  Nb  Nb22  1  0.000000  0.566008  0.750000  1
  Nb  Nb23  1  0.000000  0.433992  0.250000  1
  P  P24  1  0.312299  0.225251  0.346111  1
  P  P25  1  0.312299  0.087048  0.846111  1
  P  P26  1  0.774749  0.687701  0.846111  1
  P  P27  1  0.666667  0.333333  0.118758  1
  P  P28  1  0.666667  0.333333  0.618758  1
  P  P29  1  0.912952  0.687701  0.346111  1
  P  P30  1  0.087048  0.774749  0.153889  1
  P  P31  1  0.774749  0.087048  0.346111  1
  P  P32  1  0.225251  0.912952  0.653889  1
  P  P33  1  0.912952  0.225251  0.846111  1
  P  P34  1  0.087048  0.312299  0.653889  1
  P  P35  1  0.333333  0.666667  0.881242  1
  P  P36  1  0.333333  0.666667  0.381242  1
  P  P37  1  0.225251  0.312299  0.153889  1
  P  P38  1  0.687701  0.912952  0.153889  1
  P  P39  1  0.687701  0.774749  0.653889  1
  O  O40  1  0.219356  0.219356  0.250000  1
  O  O41  1  0.230288  0.221790  0.067779  1
  O  O42  1  0.317344  0.241769  0.847955  1
  O  O43  1  0.219356  0.000000  0.750000  1
  O  O44  1  0.230288  0.008498  0.567779  1
  O  O45  1  0.317344  0.075574  0.347955  1
  O  O46  1  0.476831  0.362278  0.338618  1
  O  O47  1  0.514332  0.320364  0.657555  1
  O  O48  1  0.637722  0.523169  0.838618  1
  O  O49  1  0.778210  0.769712  0.567779  1
  O  O50  1  0.780644  0.780644  0.750000  1
  O  O51  1  0.758231  0.682656  0.347955  1
  O  O52  1  0.514332  0.193968  0.157555  1
  O  O53  1  0.476831  0.114553  0.838618  1
  O  O54  1  0.679636  0.485668  0.157555  1
  O  O55  1  0.666667  0.333333  0.011117  1
  O  O56  1  0.666667  0.333333  0.511117  1
  O  O57  1  0.806032  0.485668  0.657555  1
  O  O58  1  0.637722  0.114553  0.338618  1
  O  O59  1  0.679636  0.193968  0.657555  1
  O  O60  1  0.924426  0.682656  0.847955  1
  O  O61  1  0.000000  0.780644  0.250000  1
  O  O62  1  0.991502  0.769712  0.067779  1
  O  O63  1  0.008498  0.778210  0.432221  1
  O  O64  1  0.885447  0.523169  0.338618  1
  O  O65  1  0.806032  0.320364  0.157555  1
  O  O66  1  0.075574  0.758231  0.652045  1
  O  O67  1  0.885447  0.362278  0.838618  1
  O  O68  1  0.758231  0.075574  0.847955  1
  O  O69  1  0.221790  0.991502  0.932221  1
  O  O70  1  0.778210  0.008498  0.067779  1
  O  O71  1  0.780644  0.000000  0.250000  1
  O  O72  1  0.241769  0.924426  0.152045  1
  O  O73  1  0.114553  0.637722  0.161382  1
  O  O74  1  0.924426  0.241769  0.347955  1
  O  O75  1  0.193968  0.679636  0.842445  1
  O  O76  1  0.114553  0.476831  0.661382  1
  O  O77  1  0.991502  0.221790  0.567779  1
  O  O78  1  0.008498  0.230288  0.932221  1
  O  O79  1  0.000000  0.219356  0.750000  1
  O  O80  1  0.075574  0.317344  0.152045  1
  O  O81  1  0.320364  0.806032  0.342445  1
  O  O82  1  0.362278  0.885447  0.661382  1
  O  O83  1  0.193968  0.514332  0.342445  1
  O  O84  1  0.333333  0.666667  0.988883  1
  O  O85  1  0.333333  0.666667  0.488883  1
  O  O86  1  0.320364  0.514332  0.842445  1
  O  O87  1  0.523169  0.885447  0.161382  1
  O  O88  1  0.485668  0.806032  0.842445  1
  O  O89  1  0.241769  0.317344  0.652045  1
  O  O90  1  0.221790  0.230288  0.432221  1
  O  O91  1  0.362278  0.476831  0.161382  1
  O  O92  1  0.485668  0.679636  0.342445  1
  O  O93  1  0.523169  0.637722  0.661382  1
  O  O94  1  0.682656  0.924426  0.652045  1
  O  O95  1  0.769712  0.991502  0.432221  1
  O  O96  1  0.682656  0.758231  0.152045  1
  O  O97  1  0.769712  0.778210  0.932221  1
