# generated using pymatgen
data_Li3Mn2P4HO14
_symmetry_space_group_name_H-M   'P 1'
_cell_length_a   5.13908529
_cell_length_b   5.26740852
_cell_length_c   12.60280793
_cell_angle_alpha   100.64754140
_cell_angle_beta   91.42552055
_cell_angle_gamma   117.83757509
_symmetry_Int_Tables_number   1
_chemical_formula_structural   Li3Mn2P4HO14
_chemical_formula_sum   'Li3 Mn2 P4 H1 O14'
_cell_volume   294.04436996
_cell_formula_units_Z   1
loop_
 _symmetry_equiv_pos_site_id
 _symmetry_equiv_pos_as_xyz
  1  'x, y, z'
loop_
 _atom_site_type_symbol
 _atom_site_label
 _atom_site_symmetry_multiplicity
 _atom_site_fract_x
 _atom_site_fract_y
 _atom_site_fract_z
 _atom_site_occupancy
  Li  Li0  1  0.767906  0.189942  0.008993  1
  Li  Li1  1  0.500000  0.000000  0.500000  1
  Li  Li2  1  0.232094  0.810058  0.991007  1
  Mn  Mn3  1  0.653993  0.074239  0.237955  1
  Mn  Mn4  1  0.346007  0.925761  0.762045  1
  P  P5  1  0.321993  0.407741  0.376688  1
  P  P6  1  0.330289  0.437101  0.142528  1
  P  P7  1  0.669711  0.562899  0.857472  1
  P  P8  1  0.678007  0.592259  0.623312  1
  H  H9  1  0.000000  0.500000  0.500000  1
  O  O10  1  0.480852  0.225703  0.374044  1
  O  O11  1  0.578254  0.350615  0.126256  1
  O  O12  1  0.062429  0.251864  0.093479  1
  O  O13  1  0.158091  0.341988  0.272186  1
  O  O14  1  0.051425  0.307729  0.473822  1
  O  O15  1  0.554465  0.233864  0.885112  1
  O  O16  1  0.538037  0.734670  0.358708  1
  O  O17  1  0.461963  0.265330  0.641292  1
  O  O18  1  0.445535  0.766136  0.114888  1
  O  O19  1  0.948575  0.692271  0.526178  1
  O  O20  1  0.841909  0.658012  0.727814  1
  O  O21  1  0.937571  0.748136  0.906521  1
  O  O22  1  0.421746  0.649385  0.873744  1
  O  O23  1  0.519148  0.774297  0.625956  1
