# generated using pymatgen
data_Ag7(PbO3)3
_symmetry_space_group_name_H-M   'P 1'
_cell_length_a   8.86112126
_cell_length_b   8.86112126
_cell_length_c   8.91005257
_cell_angle_alpha   72.22190225
_cell_angle_beta   107.77809775
_cell_angle_gamma   107.90607616
_symmetry_Int_Tables_number   1
_chemical_formula_structural   Ag7(PbO3)3
_chemical_formula_sum   'Ag14 Pb6 O18'
_cell_volume   616.43067154
_cell_formula_units_Z   2
loop_
 _symmetry_equiv_pos_site_id
 _symmetry_equiv_pos_as_xyz
  1  'x, y, z'
loop_
 _atom_site_type_symbol
 _atom_site_label
 _atom_site_symmetry_multiplicity
 _atom_site_fract_x
 _atom_site_fract_y
 _atom_site_fract_z
 _atom_site_occupancy
  Ag  Ag0  1  0.500000  1.000000  0.500000  1
  Ag  Ag1  1  0.331187  0.164657  0.166063  1
  Ag  Ag2  1  0.333365  0.666635  0.666657  1
  Ag  Ag3  1  0.668813  0.835343  0.833937  1
  Ag  Ag4  1  0.245663  0.754337  0.254281  1
  Ag  Ag5  1  0.421696  0.578304  0.078296  1
  Ag  Ag6  1  0.578304  0.421696  0.921704  1
  Ag  Ag7  1  0.754337  0.245663  0.745719  1
  Ag  Ag8  1  0.915327  0.084673  0.593584  1
  Ag  Ag9  1  0.084673  0.915327  0.406416  1
  Ag  Ag10  1  0.666635  0.333365  0.333343  1
  Ag  Ag11  1  0.000000  0.500000  0.500000  1
  Ag  Ag12  1  0.835343  0.668813  0.166063  1
  Ag  Ag13  1  0.164657  0.331187  0.833937  1
  Pb  Pb14  1  0.327906  0.999097  0.834738  1
  Pb  Pb15  1  0.332439  0.332439  0.500000  1
  Pb  Pb16  1  0.672094  0.000903  0.165262  1
  Pb  Pb17  1  0.667561  0.667561  0.500000  1
  Pb  Pb18  1  0.999097  0.327906  0.165262  1
  Pb  Pb19  1  0.000903  0.672094  0.834738  1
  O  O20  1  0.314875  0.061090  0.563240  1
  O  O21  1  0.351637  0.271800  0.771555  1
  O  O22  1  0.685125  0.938910  0.436760  1
  O  O23  1  0.397515  0.981141  0.105859  1
  O  O24  1  0.395129  0.604871  0.481372  1
  O  O25  1  0.272920  0.727080  0.853180  1
  O  O26  1  0.271800  0.351637  0.228445  1
  O  O27  1  0.602485  0.018859  0.894141  1
  O  O28  1  0.604871  0.395129  0.518628  1
  O  O29  1  0.062260  0.937740  0.813114  1
  O  O30  1  0.727080  0.272920  0.146820  1
  O  O31  1  0.061090  0.314875  0.436760  1
  O  O32  1  0.728200  0.648363  0.771555  1
  O  O33  1  0.937740  0.062260  0.186886  1
  O  O34  1  0.938910  0.685125  0.563240  1
  O  O35  1  0.981141  0.397515  0.894141  1
  O  O36  1  0.648363  0.728200  0.228445  1
  O  O37  1  0.018859  0.602485  0.105859  1
