# generated using pymatgen
data_Na3Cr2P2O8F3
_symmetry_space_group_name_H-M   'P 1'
_cell_length_a   6.43040298
_cell_length_b   6.43354009
_cell_length_c   16.95396356
_cell_angle_alpha   100.67400286
_cell_angle_beta   100.59288110
_cell_angle_gamma   90.04798039
_symmetry_Int_Tables_number   1
_chemical_formula_structural   Na3Cr2P2O8F3
_chemical_formula_sum   'Na9 Cr6 P6 O24 F9'
_cell_volume   677.06548073
_cell_formula_units_Z   3
loop_
 _symmetry_equiv_pos_site_id
 _symmetry_equiv_pos_as_xyz
  1  'x, y, z'
loop_
 _atom_site_type_symbol
 _atom_site_label
 _atom_site_symmetry_multiplicity
 _atom_site_fract_x
 _atom_site_fract_y
 _atom_site_fract_z
 _atom_site_occupancy
  Na  Na0  1  0.897654  0.564788  0.666116  1
  Na  Na1  1  0.849332  0.103715  0.666866  1
  Na  Na2  1  0.306653  0.836439  0.665741  1
  Na  Na3  1  0.954077  0.954239  0.329818  1
  Na  Na4  1  0.303154  0.441438  0.333258  1
  Na  Na5  1  0.440622  0.985524  0.333711  1
  Na  Na6  1  0.283608  0.319708  0.999162  1
  Na  Na7  1  0.797390  0.420483  0.001821  1
  Na  Na8  1  0.546637  0.836078  0.004786  1
  Cr  Cr9  1  0.404843  0.395668  0.787182  1
  Cr  Cr10  1  0.744140  0.725106  0.452963  1
  Cr  Cr11  1  0.959793  0.936900  0.881597  1
  Cr  Cr12  1  0.075569  0.060964  0.122432  1
  Cr  Cr13  1  0.283012  0.274397  0.544175  1
  Cr  Cr14  1  0.615257  0.604807  0.211277  1
  P  P15  1  0.432358  0.921678  0.837771  1
  P  P16  1  0.757432  0.251552  0.498032  1
  P  P17  1  0.926738  0.418537  0.834013  1
  P  P18  1  0.092612  0.590383  0.167444  1
  P  P19  1  0.255289  0.752751  0.493283  1
  P  P20  1  0.593222  0.094065  0.169507  1
  O  O21  1  0.279952  0.950202  0.900031  1
  O  O22  1  0.398198  0.702906  0.779995  1
  O  O23  1  0.393619  0.082017  0.779528  1
  O  O24  1  0.654494  0.949556  0.891694  1
  O  O25  1  0.600751  0.264125  0.558356  1
  O  O26  1  0.710217  0.380147  0.774305  1
  O  O27  1  0.744130  0.033053  0.439834  1
  O  O28  1  0.713094  0.413682  0.441432  1
  O  O29  1  0.964719  0.256350  0.892153  1
  O  O30  1  0.948061  0.633805  0.892778  1
  O  O31  1  0.975290  0.289495  0.556798  1
  O  O32  1  0.085337  0.393467  0.774422  1
  O  O33  1  0.931059  0.601769  0.225210  1
  O  O34  1  0.042118  0.716207  0.432279  1
  O  O35  1  0.084677  0.370390  0.110334  1
  O  O36  1  0.045921  0.746941  0.108225  1
  O  O37  1  0.285851  0.588986  0.550391  1
  O  O38  1  0.269776  0.969044  0.552044  1
  O  O39  1  0.310392  0.635627  0.225798  1
  O  O40  1  0.425368  0.737250  0.439050  1
  O  O41  1  0.380384  0.046151  0.107496  1
  O  O42  1  0.634194  0.926018  0.225193  1
  O  O43  1  0.592688  0.307757  0.227928  1
  O  O44  1  0.761178  0.085139  0.114624  1
  F  F45  1  0.329705  0.338340  0.665629  1
  F  F46  1  0.471360  0.452729  0.907463  1
  F  F47  1  0.665922  0.680643  0.332075  1
  F  F48  1  0.820189  0.785669  0.571977  1
  F  F49  1  0.926103  0.879330  0.762179  1
  F  F50  1  0.003474  0.016476  0.002065  1
  F  F51  1  0.148539  0.108388  0.242189  1
  F  F52  1  0.240394  0.207985  0.424068  1
  F  F53  1  0.561860  0.547336  0.091501  1
