# generated using pymatgen
data_LiAlCoO3
_symmetry_space_group_name_H-M   'P 1'
_cell_length_a   5.28505282
_cell_length_b   5.42492927
_cell_length_c   5.44916858
_cell_angle_alpha   65.39823289
_cell_angle_beta   66.39139113
_cell_angle_gamma   66.33409641
_symmetry_Int_Tables_number   1
_chemical_formula_structural   LiAlCoO3
_chemical_formula_sum   'Li2 Al2 Co2 O6'
_cell_volume   124.89110375
_cell_formula_units_Z   2
loop_
 _symmetry_equiv_pos_site_id
 _symmetry_equiv_pos_as_xyz
  1  'x, y, z'
loop_
 _atom_site_type_symbol
 _atom_site_label
 _atom_site_symmetry_multiplicity
 _atom_site_fract_x
 _atom_site_fract_y
 _atom_site_fract_z
 _atom_site_occupancy
  Li  Li0  1  0.070652  0.421900  0.250478  1
  Li  Li1  1  0.929348  0.578100  0.749522  1
  Al  Al2  1  0.755386  0.084649  0.913247  1
  Al  Al3  1  0.244614  0.915351  0.086753  1
  Co  Co4  1  0.426320  0.745711  0.583624  1
  Co  Co5  1  0.573680  0.254289  0.416376  1
  O  O6  1  0.746780  0.390562  0.607884  1
  O  O7  1  0.429049  0.075678  0.215329  1
  O  O8  1  0.078621  0.785900  0.917970  1
  O  O9  1  0.921379  0.214100  0.082030  1
  O  O10  1  0.570951  0.924322  0.784671  1
  O  O11  1  0.253220  0.609438  0.392116  1
