# generated using pymatgen
data_LiSbS
_symmetry_space_group_name_H-M   'P 1'
_cell_length_a   4.43902271
_cell_length_b   4.53475065
_cell_length_c   7.17357055
_cell_angle_alpha   88.84047037
_cell_angle_beta   89.76536011
_cell_angle_gamma   89.75088700
_symmetry_Int_Tables_number   1
_chemical_formula_structural   LiSbS
_chemical_formula_sum   'Li2 Sb2 S2'
_cell_volume   144.37088500
_cell_formula_units_Z   2
loop_
 _symmetry_equiv_pos_site_id
 _symmetry_equiv_pos_as_xyz
  1  'x, y, z'
loop_
 _atom_site_type_symbol
 _atom_site_label
 _atom_site_symmetry_multiplicity
 _atom_site_fract_x
 _atom_site_fract_y
 _atom_site_fract_z
 _atom_site_occupancy
  Li  Li0  1  0.102388  0.585944  0.015489  1
  Li  Li1  1  0.601457  0.083266  0.008659  1
  Sb  Sb2  1  0.074240  0.026965  0.502145  1
  Sb  Sb3  1  0.579811  0.591205  0.519995  1
  S  S4  1  0.600765  0.585541  0.863177  1
  S  S5  1  0.098936  0.078284  0.160127  1
