# generated using pymatgen
data_Li5Fe3(CuO5)2
_symmetry_space_group_name_H-M   'P 1'
_cell_length_a   5.11735521
_cell_length_b   5.13252729
_cell_length_c   7.90227916
_cell_angle_alpha   108.75993619
_cell_angle_beta   102.21008561
_cell_angle_gamma   100.00627973
_symmetry_Int_Tables_number   1
_chemical_formula_structural   Li5Fe3(CuO5)2
_chemical_formula_sum   'Li5 Fe3 Cu2 O10'
_cell_volume   185.41030302
_cell_formula_units_Z   1
loop_
 _symmetry_equiv_pos_site_id
 _symmetry_equiv_pos_as_xyz
  1  'x, y, z'
loop_
 _atom_site_type_symbol
 _atom_site_label
 _atom_site_symmetry_multiplicity
 _atom_site_fract_x
 _atom_site_fract_y
 _atom_site_fract_z
 _atom_site_occupancy
  Li  Li0  1  0.798304  0.488198  0.414480  1
  Li  Li1  1  0.606812  0.508699  0.776377  1
  Li  Li2  1  0.000000  0.000000  0.500000  1
  Li  Li3  1  0.393188  0.491301  0.223623  1
  Li  Li4  1  0.201696  0.511802  0.585520  1
  Fe  Fe5  1  0.000000  0.500000  0.000000  1
  Fe  Fe6  1  0.801816  0.005042  0.885665  1
  Fe  Fe7  1  0.198184  0.994958  0.114335  1
  Cu  Cu8  1  0.407204  0.006388  0.689524  1
  Cu  Cu9  1  0.592796  0.993612  0.310476  1
  O  O10  1  0.186656  0.244892  0.861776  1
  O  O11  1  0.389861  0.766642  0.945461  1
  O  O12  1  0.591186  0.768361  0.544574  1
  O  O13  1  0.999803  0.249103  0.232708  1
  O  O14  1  0.786435  0.235046  0.661918  1
  O  O15  1  0.213565  0.764954  0.338082  1
  O  O16  1  0.000197  0.750897  0.767292  1
  O  O17  1  0.408814  0.231639  0.455426  1
  O  O18  1  0.610139  0.233358  0.054539  1
  O  O19  1  0.813344  0.755108  0.138224  1
