# generated using pymatgen
data_Li6NiOF6
_symmetry_space_group_name_H-M   'P 1'
_cell_length_a   14.59230193
_cell_length_b   14.59230193
_cell_length_c   14.59230193
_cell_angle_alpha   168.57521122
_cell_angle_beta   168.57521122
_cell_angle_gamma   16.18408689
_symmetry_Int_Tables_number   1
_chemical_formula_structural   Li6NiOF6
_chemical_formula_sum   'Li6 Ni1 O1 F6'
_cell_volume   121.90940501
_cell_formula_units_Z   1
loop_
 _symmetry_equiv_pos_site_id
 _symmetry_equiv_pos_as_xyz
  1  'x, y, z'
loop_
 _atom_site_type_symbol
 _atom_site_label
 _atom_site_symmetry_multiplicity
 _atom_site_fract_x
 _atom_site_fract_y
 _atom_site_fract_z
 _atom_site_occupancy
  Li  Li0  1  0.572741  0.572741  0.000000  1
  Li  Li1  1  0.144765  0.144765  0.000000  1
  Li  Li2  1  0.714618  0.714618  0.000000  1
  Li  Li3  1  0.285382  0.285382  0.000000  1
  Li  Li4  1  0.855235  0.855235  0.000000  1
  Li  Li5  1  0.427259  0.427259  0.000000  1
  Ni  Ni6  1  0.000000  0.000000  0.000000  1
  O  O7  1  0.500000  0.500000  0.000000  1
  F  F8  1  0.074801  0.074801  0.000000  1
  F  F9  1  0.644380  0.644380  0.000000  1
  F  F10  1  0.214768  0.214768  0.000000  1
  F  F11  1  0.785232  0.785232  0.000000  1
  F  F12  1  0.355620  0.355620  0.000000  1
  F  F13  1  0.925199  0.925199  0.000000  1
