# generated using pymatgen
data_Li2Ti(BO3)2
_symmetry_space_group_name_H-M   'P 1'
_cell_length_a   5.15373925
_cell_length_b   6.22541968
_cell_length_c   8.32051303
_cell_angle_alpha   74.93564792
_cell_angle_beta   87.18431867
_cell_angle_gamma   87.47937237
_symmetry_Int_Tables_number   1
_chemical_formula_structural   Li2Ti(BO3)2
_chemical_formula_sum   'Li4 Ti2 B4 O12'
_cell_volume   257.33674678
_cell_formula_units_Z   2
loop_
 _symmetry_equiv_pos_site_id
 _symmetry_equiv_pos_as_xyz
  1  'x, y, z'
loop_
 _atom_site_type_symbol
 _atom_site_label
 _atom_site_symmetry_multiplicity
 _atom_site_fract_x
 _atom_site_fract_y
 _atom_site_fract_z
 _atom_site_occupancy
  Li  Li0  1  0.348610  0.646794  0.600773  1
  Li  Li1  1  0.185325  0.542783  0.237221  1
  Li  Li2  1  0.842984  0.508911  0.787471  1
  Li  Li3  1  0.837021  0.267591  0.334503  1
  Ti  Ti4  1  0.359521  0.996986  0.253001  1
  Ti  Ti5  1  0.653713  0.011689  0.753432  1
  B  B6  1  0.843243  0.816409  0.434199  1
  B  B7  1  0.342450  0.306004  0.907392  1
  B  B8  1  0.673158  0.689390  0.087083  1
  B  B9  1  0.166350  0.134060  0.552959  1
  O  O10  1  0.331828  0.010202  0.670346  1
  O  O11  1  0.730793  0.754108  0.912310  1
  O  O12  1  0.116128  0.801032  0.400319  1
  O  O13  1  0.724158  0.700123  0.574670  1
  O  O14  1  0.207162  0.446038  0.793525  1
  O  O15  1  0.433138  0.776142  0.137429  1
  O  O16  1  0.598467  0.225959  0.866257  1
  O  O17  1  0.825661  0.551619  0.192841  1
  O  O18  1  0.242688  0.229503  0.390940  1
  O  O19  1  0.903336  0.147847  0.595191  1
  O  O20  1  0.264190  0.224894  0.075403  1
  O  O21  1  0.706075  0.984917  0.315734  1
