# generated using pymatgen
data_Li4Co3Ni2Sb3O16
_symmetry_space_group_name_H-M   'P 1'
_cell_length_a   5.92566195
_cell_length_b   5.92566195
_cell_length_c   9.70936233
_cell_angle_alpha   89.76380774
_cell_angle_beta   90.23619226
_cell_angle_gamma   119.08160171
_symmetry_Int_Tables_number   1
_chemical_formula_structural   Li4Co3Ni2Sb3O16
_chemical_formula_sum   'Li4 Co3 Ni2 Sb3 O16'
_cell_volume   297.94445811
_cell_formula_units_Z   1
loop_
 _symmetry_equiv_pos_site_id
 _symmetry_equiv_pos_as_xyz
  1  'x, y, z'
loop_
 _atom_site_type_symbol
 _atom_site_label
 _atom_site_symmetry_multiplicity
 _atom_site_fract_x
 _atom_site_fract_y
 _atom_site_fract_z
 _atom_site_occupancy
  Li  Li0  1  0.330588  0.669412  0.135331  1
  Li  Li1  1  0.023980  0.976020  0.011166  1
  Li  Li2  1  0.016071  0.983929  0.492703  1
  Li  Li3  1  0.667051  0.332949  0.595778  1
  Co  Co4  1  0.167161  0.832839  0.783276  1
  Co  Co5  1  0.337436  0.169902  0.284880  1
  Co  Co6  1  0.830098  0.662564  0.284880  1
  Ni  Ni7  1  0.329501  0.670499  0.488978  1
  Ni  Ni8  1  0.655555  0.344445  0.025496  1
  Sb  Sb9  1  0.166168  0.338414  0.784438  1
  Sb  Sb10  1  0.661586  0.833832  0.784438  1
  Sb  Sb11  1  0.829906  0.170094  0.285015  1
  O  O12  1  0.158529  0.313618  0.398353  1
  O  O13  1  0.486255  0.513745  0.664979  1
  O  O14  1  0.326452  0.673548  0.896730  1
  O  O15  1  0.004039  0.995961  0.680433  1
  O  O16  1  0.004636  0.995364  0.190276  1
  O  O17  1  0.686382  0.841471  0.398353  1
  O  O18  1  0.031277  0.522639  0.669197  1
  O  O19  1  0.477361  0.968723  0.669197  1
  O  O20  1  0.842030  0.157970  0.900413  1
  O  O21  1  0.161556  0.838444  0.387430  1
  O  O22  1  0.511205  0.038296  0.165037  1
  O  O23  1  0.961704  0.488795  0.165037  1
  O  O24  1  0.660376  0.339624  0.391033  1
  O  O25  1  0.314357  0.156828  0.892540  1
  O  O26  1  0.514961  0.485039  0.174227  1
  O  O27  1  0.843172  0.685643  0.892540  1
