# generated using pymatgen
data_Li3NiPCO7
_symmetry_space_group_name_H-M   'P 1'
_cell_length_a   4.94520082
_cell_length_b   8.35024837
_cell_length_c   12.83559310
_cell_angle_alpha   90.41331392
_cell_angle_beta   90.10040745
_cell_angle_gamma   94.79828146
_symmetry_Int_Tables_number   1
_chemical_formula_structural   Li3NiPCO7
_chemical_formula_sum   'Li12 Ni4 P4 C4 O28'
_cell_volume   528.15578117
_cell_formula_units_Z   4
loop_
 _symmetry_equiv_pos_site_id
 _symmetry_equiv_pos_as_xyz
  1  'x, y, z'
loop_
 _atom_site_type_symbol
 _atom_site_label
 _atom_site_symmetry_multiplicity
 _atom_site_fract_x
 _atom_site_fract_y
 _atom_site_fract_z
 _atom_site_occupancy
  Li  Li0  1  0.235468  0.097456  0.124483  1
  Li  Li1  1  0.231369  0.101472  0.628795  1
  Li  Li2  1  0.753958  0.279034  0.513478  1
  Li  Li3  1  0.751138  0.272758  0.247364  1
  Li  Li4  1  0.765524  0.280380  0.740808  1
  Li  Li5  1  0.218976  0.347759  0.869052  1
  Li  Li6  1  0.243530  0.718795  0.982049  1
  Li  Li7  1  0.246005  0.720626  0.263218  1
  Li  Li8  1  0.248906  0.723842  0.494100  1
  Li  Li9  1  0.246294  0.719978  0.761804  1
  Li  Li10  1  0.766435  0.901189  0.378201  1
  Li  Li11  1  0.766774  0.901227  0.871338  1
  Ni  Ni12  1  0.751723  0.266218  0.996436  1
  Ni  Ni13  1  0.208966  0.332607  0.375892  1
  Ni  Ni14  1  0.793691  0.666978  0.124167  1
  Ni  Ni15  1  0.792774  0.666412  0.625378  1
  P  P16  1  0.271526  0.412723  0.123573  1
  P  P17  1  0.277431  0.413278  0.625313  1
  P  P18  1  0.720521  0.585461  0.374070  1
  P  P19  1  0.714701  0.587258  0.876696  1
  C  C20  1  0.297471  0.039185  0.373412  1
  C  C21  1  0.295543  0.040800  0.882812  1
  C  C22  1  0.703062  0.959159  0.624761  1
  C  C23  1  0.706173  0.961339  0.122735  1
  O  O24  1  0.046636  0.073098  0.881268  1
  O  O25  1  0.048784  0.076506  0.373371  1
  O  O26  1  0.645818  0.111440  0.117964  1
  O  O27  1  0.640452  0.106566  0.625299  1
  O  O28  1  0.489077  0.156074  0.372428  1
  O  O29  1  0.489506  0.156657  0.889722  1
  O  O30  1  0.174551  0.307852  0.530193  1
  O  O31  1  0.152192  0.309056  0.031663  1
  O  O32  1  0.184765  0.308925  0.219531  1
  O  O33  1  0.178856  0.309550  0.718505  1
  O  O34  1  0.830296  0.418186  0.373698  1
  O  O35  1  0.823130  0.418520  0.876497  1
  O  O36  1  0.594415  0.438413  0.623543  1
  O  O37  1  0.590767  0.430662  0.114042  1
  O  O38  1  0.404672  0.561713  0.373512  1
  O  O39  1  0.402410  0.570583  0.877327  1
  O  O40  1  0.173929  0.582645  0.127602  1
  O  O41  1  0.168315  0.581199  0.624115  1
  O  O42  1  0.824005  0.692199  0.467535  1
  O  O43  1  0.821986  0.689928  0.279995  1
  O  O44  1  0.827520  0.687792  0.782614  1
  O  O45  1  0.827010  0.693377  0.970108  1
  O  O46  1  0.512661  0.848334  0.126537  1
  O  O47  1  0.513539  0.841220  0.624117  1
  O  O48  1  0.358442  0.891628  0.374533  1
  O  O49  1  0.362264  0.893905  0.874237  1
  O  O50  1  0.953495  0.925132  0.124977  1
  O  O51  1  0.952551  0.922901  0.625138  1
