# generated using pymatgen
data_FeCo3O8
_symmetry_space_group_name_H-M   'P 1'
_cell_length_a   5.72530153
_cell_length_b   5.72530153
_cell_length_c   5.72530153
_cell_angle_alpha   59.52715448
_cell_angle_beta   59.52715448
_cell_angle_gamma   59.52715448
_symmetry_Int_Tables_number   1
_chemical_formula_structural   FeCo3O8
_chemical_formula_sum   'Fe1 Co3 O8'
_cell_volume   131.27598167
_cell_formula_units_Z   1
loop_
 _symmetry_equiv_pos_site_id
 _symmetry_equiv_pos_as_xyz
  1  'x, y, z'
loop_
 _atom_site_type_symbol
 _atom_site_label
 _atom_site_symmetry_multiplicity
 _atom_site_fract_x
 _atom_site_fract_y
 _atom_site_fract_z
 _atom_site_occupancy
  Fe  Fe0  1  0.121843  0.121843  0.121843  1
  Co  Co1  1  0.504090  0.504090  0.990683  1
  Co  Co2  1  0.990683  0.504090  0.504090  1
  Co  Co3  1  0.504090  0.990683  0.504090  1
  O  O4  1  0.736600  0.736600  0.736600  1
  O  O5  1  0.750993  0.297340  0.750993  1
  O  O6  1  0.297340  0.750993  0.750993  1
  O  O7  1  0.750993  0.750993  0.297340  1
  O  O8  1  0.247362  0.247362  0.713948  1
  O  O9  1  0.713948  0.247362  0.247362  1
  O  O10  1  0.247362  0.713948  0.247362  1
  O  O11  1  0.259696  0.259696  0.259696  1
