# generated using pymatgen
data_Li3Cr3FeO8
_symmetry_space_group_name_H-M   'P 1'
_cell_length_a   5.14531149
_cell_length_b   7.75117156
_cell_length_c   7.79461911
_cell_angle_alpha   81.86831998
_cell_angle_beta   84.04966541
_cell_angle_gamma   70.76188295
_symmetry_Int_Tables_number   1
_chemical_formula_structural   Li3Cr3FeO8
_chemical_formula_sum   'Li6 Cr6 Fe2 O16'
_cell_volume   290.01391751
_cell_formula_units_Z   2
loop_
 _symmetry_equiv_pos_site_id
 _symmetry_equiv_pos_as_xyz
  1  'x, y, z'
loop_
 _atom_site_type_symbol
 _atom_site_label
 _atom_site_symmetry_multiplicity
 _atom_site_fract_x
 _atom_site_fract_y
 _atom_site_fract_z
 _atom_site_occupancy
  Li  Li0  1  0.999630  0.874814  0.868700  1
  Li  Li1  1  0.999516  0.753000  0.253429  1
  Li  Li2  1  0.005328  0.370621  0.365400  1
  Li  Li3  1  0.994672  0.629379  0.634600  1
  Li  Li4  1  0.000484  0.247000  0.746571  1
  Li  Li5  1  0.000370  0.125186  0.131300  1
  Cr  Cr6  1  0.507951  0.807843  0.060983  1
  Cr  Cr7  1  0.490083  0.688941  0.439282  1
  Cr  Cr8  1  0.509917  0.311059  0.560718  1
  Cr  Cr9  1  0.496697  0.939058  0.685664  1
  Cr  Cr10  1  0.503303  0.060942  0.314336  1
  Cr  Cr11  1  0.492049  0.192157  0.939017  1
  Fe  Fe12  1  0.503173  0.560935  0.815451  1
  Fe  Fe13  1  0.496827  0.439065  0.184549  1
  O  O14  1  0.715672  0.718070  0.838610  1
  O  O15  1  0.715750  0.842808  0.469969  1
  O  O16  1  0.711332  0.589751  0.225828  1
  O  O17  1  0.724716  0.477011  0.605295  1
  O  O18  1  0.709029  0.356305  0.973655  1
  O  O19  1  0.718521  0.238368  0.331854  1
  O  O20  1  0.716842  0.101391  0.727641  1
  O  O21  1  0.281479  0.761632  0.668146  1
  O  O22  1  0.727555  0.972788  0.093391  1
  O  O23  1  0.275284  0.522989  0.394705  1
  O  O24  1  0.288668  0.410249  0.774172  1
  O  O25  1  0.290971  0.643695  0.026345  1
  O  O26  1  0.284250  0.157192  0.530031  1
  O  O27  1  0.284328  0.281930  0.161390  1
  O  O28  1  0.272445  0.027212  0.906609  1
  O  O29  1  0.283158  0.898609  0.272359  1
