# generated using pymatgen
data_Li21(FeO4)4
_symmetry_space_group_name_H-M   'P 1'
_cell_length_a   6.54655317
_cell_length_b   6.54655317
_cell_length_c   9.49582360
_cell_angle_alpha   89.90452243
_cell_angle_beta   90.09547757
_cell_angle_gamma   87.58602621
_symmetry_Int_Tables_number   1
_chemical_formula_structural   Li21(FeO4)4
_chemical_formula_sum   'Li21 Fe4 O16'
_cell_volume   406.60359017
_cell_formula_units_Z   1
loop_
 _symmetry_equiv_pos_site_id
 _symmetry_equiv_pos_as_xyz
  1  'x, y, z'
loop_
 _atom_site_type_symbol
 _atom_site_label
 _atom_site_symmetry_multiplicity
 _atom_site_fract_x
 _atom_site_fract_y
 _atom_site_fract_z
 _atom_site_occupancy
  Li  Li0  1  0.964154  0.549824  0.737199  1
  Li  Li1  1  0.955413  0.543990  0.245430  1
  Li  Li2  1  0.780943  0.227162  0.777624  1
  Li  Li3  1  0.723514  0.280267  0.027379  1
  Li  Li4  1  0.777924  0.224223  0.278983  1
  Li  Li5  1  0.749874  0.256181  0.528552  1
  Li  Li6  1  0.543990  0.955413  0.754570  1
  Li  Li7  1  0.549824  0.964154  0.262801  1
  Li  Li8  1  0.518563  0.526170  0.761102  1
  Li  Li9  1  0.526170  0.518563  0.238898  1
  Li  Li10  1  0.464885  0.043437  0.009945  1
  Li  Li11  1  0.470784  0.470784  0.500000  1
  Li  Li12  1  0.469222  0.035012  0.508094  1
  Li  Li13  1  0.280267  0.723514  0.972621  1
  Li  Li14  1  0.224223  0.777924  0.721017  1
  Li  Li15  1  0.256181  0.749874  0.471448  1
  Li  Li16  1  0.227162  0.780943  0.222376  1
  Li  Li17  1  0.043437  0.464885  0.990055  1
  Li  Li18  1  0.035012  0.469222  0.491906  1
  Li  Li19  1  0.022800  0.022800  0.000000  1
  Li  Li20  1  0.015628  0.015628  0.500000  1
  Fe  Fe21  1  0.746095  0.746095  0.000000  1
  Fe  Fe22  1  0.746603  0.746603  0.500000  1
  Fe  Fe23  1  0.243901  0.244372  0.751509  1
  Fe  Fe24  1  0.244372  0.243901  0.248491  1
  O  O25  1  0.001772  0.260515  0.637788  1
  O  O26  1  0.999834  0.265661  0.136188  1
  O  O27  1  0.734689  0.021246  0.410689  1
  O  O28  1  0.762655  0.502562  0.885780  1
  O  O29  1  0.745188  0.480056  0.384876  1
  O  O30  1  0.735258  0.011388  0.911648  1
  O  O31  1  0.506998  0.235265  0.160176  1
  O  O32  1  0.506090  0.248967  0.652970  1
  O  O33  1  0.502562  0.762655  0.114220  1
  O  O34  1  0.480056  0.745188  0.615124  1
  O  O35  1  0.248967  0.506090  0.347030  1
  O  O36  1  0.235265  0.506998  0.839824  1
  O  O37  1  0.265661  0.999834  0.863812  1
  O  O38  1  0.260515  0.001772  0.362212  1
  O  O39  1  0.011388  0.735258  0.088352  1
  O  O40  1  0.021246  0.734689  0.589311  1
