# generated using pymatgen
data_Ni3OF5
_symmetry_space_group_name_H-M   'P 1'
_cell_length_a   5.62918355
_cell_length_b   5.62918355
_cell_length_c   7.27774776
_cell_angle_alpha   72.86956636
_cell_angle_beta   107.13043364
_cell_angle_gamma   106.89588810
_symmetry_Int_Tables_number   1
_chemical_formula_structural   Ni3OF5
_chemical_formula_sum   'Ni6 O2 F10'
_cell_volume   205.29216975
_cell_formula_units_Z   2
loop_
 _symmetry_equiv_pos_site_id
 _symmetry_equiv_pos_as_xyz
  1  'x, y, z'
loop_
 _atom_site_type_symbol
 _atom_site_label
 _atom_site_symmetry_multiplicity
 _atom_site_fract_x
 _atom_site_fract_y
 _atom_site_fract_z
 _atom_site_occupancy
  Ni  Ni0  1  0.329498  0.670502  0.839000  1
  Ni  Ni1  1  0.338172  0.661828  0.325788  1
  Ni  Ni2  1  0.663853  0.336147  0.660717  1
  Ni  Ni3  1  0.663933  0.336067  0.172177  1
  Ni  Ni4  1  0.000737  0.999263  0.500555  1
  Ni  Ni5  1  0.004643  0.995357  0.999187  1
  O  O6  1  0.232160  0.767840  0.035541  1
  O  O7  1  0.565815  0.434185  0.369506  1
  F  F8  1  0.968774  0.636488  0.666496  1
  F  F9  1  0.636760  0.969840  0.333319  1
  F  F10  1  0.104129  0.895871  0.299494  1
  F  F11  1  0.430008  0.569992  0.632351  1
  F  F12  1  0.768015  0.231985  0.964488  1
  F  F13  1  0.898471  0.101529  0.702298  1
  F  F14  1  0.697648  0.696290  0.999634  1
  F  F15  1  0.030160  0.363240  0.333319  1
  F  F16  1  0.363512  0.031226  0.666496  1
  F  F17  1  0.303710  0.302352  0.999634  1
