# generated using pymatgen
data_Na6Ca3MnC6(O9F)2
_symmetry_space_group_name_H-M   'P 1'
_cell_length_a   7.09652576
_cell_length_b   8.06451399
_cell_length_c   8.94891489
_cell_angle_alpha   63.32928400
_cell_angle_beta   85.04219039
_cell_angle_gamma   79.01402732
_symmetry_Int_Tables_number   1
_chemical_formula_structural   Na6Ca3MnC6(O9F)2
_chemical_formula_sum   'Na6 Ca3 Mn1 C6 O18 F2'
_cell_volume   449.26747435
_cell_formula_units_Z   1
loop_
 _symmetry_equiv_pos_site_id
 _symmetry_equiv_pos_as_xyz
  1  'x, y, z'
loop_
 _atom_site_type_symbol
 _atom_site_label
 _atom_site_symmetry_multiplicity
 _atom_site_fract_x
 _atom_site_fract_y
 _atom_site_fract_z
 _atom_site_occupancy
  Na  Na0  1  0.516831  0.407076  0.344479  1
  Na  Na1  1  0.680140  0.055133  0.770949  1
  Na  Na2  1  0.183223  0.046840  0.783876  1
  Na  Na3  1  0.018342  0.752237  0.652607  1
  Na  Na4  1  0.681103  0.831612  0.218307  1
  Na  Na5  1  0.181144  0.828440  0.228922  1
  Ca  Ca6  1  0.030172  0.368657  0.381055  1
  Ca  Ca7  1  0.845038  0.297757  0.020177  1
  Ca  Ca8  1  0.346733  0.320580  0.976399  1
  Mn  Mn9  1  0.534934  0.749060  0.622292  1
  C  C10  1  0.994765  0.674777  0.006439  1
  C  C11  1  0.804509  0.053179  0.390381  1
  C  C12  1  0.307986  0.059775  0.388085  1
  C  C13  1  0.496599  0.678845  0.987287  1
  C  C14  1  0.799065  0.449102  0.617147  1
  C  C15  1  0.313279  0.451365  0.609943  1
  O  O16  1  0.974060  0.667900  0.155145  1
  O  O17  1  0.466715  0.716651  0.113279  1
  O  O18  1  0.228643  0.524083  0.466091  1
  O  O19  1  0.900808  0.284511  0.654285  1
  O  O20  1  0.388780  0.276128  0.683112  1
  O  O21  1  0.545624  0.504022  0.010797  1
  O  O22  1  0.803087  0.236538  0.312869  1
  O  O23  1  0.968191  0.832184  0.874620  1
  O  O24  1  0.304983  0.232471  0.272973  1
  O  O25  1  0.719717  0.981061  0.534705  1
  O  O26  1  0.204518  0.030828  0.521527  1
  O  O27  1  0.477728  0.813877  0.834170  1
  O  O28  1  0.890696  0.951419  0.320037  1
  O  O29  1  0.412767  0.919427  0.369239  1
  O  O30  1  0.043596  0.515123  0.994064  1
  O  O31  1  0.785900  0.522806  0.722744  1
  O  O32  1  0.319917  0.557859  0.686297  1
  O  O33  1  0.710226  0.544858  0.475079  1
  F  F34  1  0.136165  0.131367  0.002035  1
  F  F35  1  0.635240  0.132010  0.998585  1
