# generated using pymatgen
data_Li2V2Si4O11
_symmetry_space_group_name_H-M   'P 1'
_cell_length_a   7.00531901
_cell_length_b   7.52305427
_cell_length_c   8.96911373
_cell_angle_alpha   100.04273970
_cell_angle_beta   100.78569986
_cell_angle_gamma   103.72557280
_symmetry_Int_Tables_number   1
_chemical_formula_structural   Li2V2Si4O11
_chemical_formula_sum   'Li4 V4 Si8 O22'
_cell_volume   439.05953838
_cell_formula_units_Z   2
loop_
 _symmetry_equiv_pos_site_id
 _symmetry_equiv_pos_as_xyz
  1  'x, y, z'
loop_
 _atom_site_type_symbol
 _atom_site_label
 _atom_site_symmetry_multiplicity
 _atom_site_fract_x
 _atom_site_fract_y
 _atom_site_fract_z
 _atom_site_occupancy
  Li  Li0  1  0.393369  0.216466  0.804405  1
  Li  Li1  1  0.870807  0.255952  0.847317  1
  Li  Li2  1  0.129193  0.744048  0.152683  1
  Li  Li3  1  0.606631  0.783534  0.195595  1
  V  V4  1  0.119542  0.376846  0.610420  1
  V  V5  1  0.626741  0.388210  0.606898  1
  V  V6  1  0.373259  0.611790  0.393102  1
  V  V7  1  0.880458  0.623154  0.389580  1
  Si  Si8  1  0.759326  0.613003  0.966457  1
  Si  Si9  1  0.036584  0.769094  0.766429  1
  Si  Si10  1  0.475834  0.772682  0.769915  1
  Si  Si11  1  0.236909  0.028527  0.403328  1
  Si  Si12  1  0.763091  0.971473  0.596672  1
  Si  Si13  1  0.524166  0.227318  0.230085  1
  Si  Si14  1  0.963416  0.230906  0.233571  1
  Si  Si15  1  0.240674  0.386997  0.033543  1
  O  O16  1  0.184607  0.364843  0.848704  1
  O  O17  1  0.600437  0.743337  0.933627  1
  O  O18  1  0.677835  0.403684  0.852931  1
  O  O19  1  0.974785  0.734575  0.929821  1
  O  O20  1  0.283023  0.839662  0.810354  1
  O  O21  1  0.605874  0.953170  0.716495  1
  O  O22  1  0.321037  0.188925  0.565484  1
  O  O23  1  0.419831  0.582540  0.632267  1
  O  O24  1  0.816309  0.192020  0.592720  1
  O  O25  1  0.967963  0.942569  0.706364  1
  O  O26  1  0.935614  0.578081  0.629469  1
  O  O27  1  0.064386  0.421919  0.370531  1
  O  O28  1  0.032037  0.057431  0.293636  1
  O  O29  1  0.183691  0.807980  0.407280  1
  O  O30  1  0.580169  0.417460  0.367733  1
  O  O31  1  0.678963  0.811075  0.434516  1
  O  O32  1  0.394126  0.046830  0.283505  1
  O  O33  1  0.716977  0.160338  0.189646  1
  O  O34  1  0.025215  0.265425  0.070179  1
  O  O35  1  0.322165  0.596316  0.147069  1
  O  O36  1  0.399563  0.256663  0.066373  1
  O  O37  1  0.815393  0.635157  0.151296  1
