# generated using pymatgen
data_Li3Fe(PO4)2
_symmetry_space_group_name_H-M   'P 1'
_cell_length_a   8.74233059
_cell_length_b   8.75059836
_cell_length_c   9.20292272
_cell_angle_alpha   87.82702003
_cell_angle_beta   87.34892965
_cell_angle_gamma   66.62851498
_symmetry_Int_Tables_number   1
_chemical_formula_structural   Li3Fe(PO4)2
_chemical_formula_sum   'Li12 Fe4 P8 O32'
_cell_volume   645.42655963
_cell_formula_units_Z   4
loop_
 _symmetry_equiv_pos_site_id
 _symmetry_equiv_pos_as_xyz
  1  'x, y, z'
loop_
 _atom_site_type_symbol
 _atom_site_label
 _atom_site_symmetry_multiplicity
 _atom_site_fract_x
 _atom_site_fract_y
 _atom_site_fract_z
 _atom_site_occupancy
  Li  Li0  1  0.648179  0.866064  0.784115  1
  Li  Li1  1  0.877867  0.635409  0.291371  1
  Li  Li2  1  0.956036  0.154906  0.451441  1
  Li  Li3  1  0.931209  0.104642  0.768973  1
  Li  Li4  1  0.418075  0.579191  0.760319  1
  Li  Li5  1  0.564269  0.436659  0.246834  1
  Li  Li6  1  0.104216  0.895059  0.234884  1
  Li  Li7  1  0.040050  0.842309  0.537627  1
  Li  Li8  1  0.863366  0.044895  0.034407  1
  Li  Li9  1  0.121431  0.397119  0.667235  1
  Li  Li10  1  0.368186  0.139737  0.235051  1
  Li  Li11  1  0.290263  0.110888  0.891139  1
  Fe  Fe12  1  0.752636  0.500310  0.911913  1
  Fe  Fe13  1  0.493819  0.762489  0.409672  1
  Fe  Fe14  1  0.507426  0.233434  0.594950  1
  Fe  Fe15  1  0.234667  0.504889  0.091669  1
  P  P16  1  0.986718  0.711399  0.929045  1
  P  P17  1  0.710802  0.983138  0.432107  1
  P  P18  1  0.756104  0.426234  0.570641  1
  P  P19  1  0.417660  0.767703  0.072021  1
  P  P20  1  0.571322  0.239609  0.926765  1
  P  P21  1  0.237928  0.568997  0.429895  1
  P  P22  1  0.283807  0.009835  0.576011  1
  P  P23  1  0.015063  0.277509  0.077663  1
  O  O24  1  0.965903  0.887547  0.880923  1
  O  O25  1  0.886561  0.974196  0.389219  1
  O  O26  1  0.846586  0.670352  0.860563  1
  O  O27  1  0.686077  0.833248  0.368994  1
  O  O28  1  0.943217  0.377095  0.547527  1
  O  O29  1  0.365684  0.954310  0.054528  1
  O  O30  1  0.044521  0.262442  0.908858  1
  O  O31  1  0.314207  0.018827  0.407398  1
  O  O32  1  0.422391  0.838915  0.623422  1
  O  O33  1  0.845738  0.433678  0.105558  1
  O  O34  1  0.521735  0.668124  0.936953  1
  O  O35  1  0.653955  0.527695  0.438693  1
  O  O36  1  0.679902  0.526291  0.709333  1
  O  O37  1  0.528420  0.691395  0.205496  1
  O  O38  1  0.731178  0.259133  0.581271  1
  O  O39  1  0.260986  0.726718  0.093650  1
  O  O40  1  0.742995  0.256899  0.915022  1
  O  O41  1  0.267204  0.734028  0.417563  1
  O  O42  1  0.468104  0.326212  0.792421  1
  O  O43  1  0.316426  0.463920  0.294293  1
  O  O44  1  0.331886  0.463679  0.563851  1
  O  O45  1  0.474026  0.343359  0.061283  1
  O  O46  1  0.160330  0.573377  0.880644  1
  O  O47  1  0.569267  0.151748  0.381238  1
  O  O48  1  0.679896  0.984860  0.602223  1
  O  O49  1  0.982295  0.687228  0.099415  1
  O  O50  1  0.599823  0.057100  0.938507  1
  O  O51  1  0.050549  0.620761  0.453156  1
  O  O52  1  0.309657  0.153402  0.655554  1
  O  O53  1  0.160406  0.313837  0.140681  1
  O  O54  1  0.106079  0.018931  0.611648  1
  O  O55  1  0.000278  0.124084  0.153136  1
