# generated using pymatgen
data_LiMo2PO8
_symmetry_space_group_name_H-M   'P 1'
_cell_length_a   6.78948734
_cell_length_b   5.36580794
_cell_length_c   17.91956591
_cell_angle_alpha   90.00000000
_cell_angle_beta   90.91884390
_cell_angle_gamma   90.00000000
_symmetry_Int_Tables_number   1
_chemical_formula_structural   LiMo2PO8
_chemical_formula_sum   'Li4 Mo8 P4 O32'
_cell_volume   652.74528438
_cell_formula_units_Z   4
loop_
 _symmetry_equiv_pos_site_id
 _symmetry_equiv_pos_as_xyz
  1  'x, y, z'
loop_
 _atom_site_type_symbol
 _atom_site_label
 _atom_site_symmetry_multiplicity
 _atom_site_fract_x
 _atom_site_fract_y
 _atom_site_fract_z
 _atom_site_occupancy
  Li  Li0  1  0.258774  0.788912  0.782182  1
  Li  Li1  1  0.741226  0.288912  0.217818  1
  Li  Li2  1  0.246350  0.787706  0.291866  1
  Li  Li3  1  0.753650  0.287706  0.708134  1
  Mo  Mo4  1  0.157983  0.728704  0.452835  1
  Mo  Mo5  1  0.660203  0.229842  0.048126  1
  Mo  Mo6  1  0.842017  0.228704  0.547165  1
  Mo  Mo7  1  0.006137  0.737429  0.122253  1
  Mo  Mo8  1  0.339797  0.729842  0.951874  1
  Mo  Mo9  1  0.993863  0.237429  0.877747  1
  Mo  Mo10  1  0.501518  0.224725  0.374530  1
  Mo  Mo11  1  0.498482  0.724725  0.625470  1
  P  P12  1  0.302984  0.218854  0.189988  1
  P  P13  1  0.804126  0.727061  0.305593  1
  P  P14  1  0.697016  0.718854  0.810012  1
  P  P15  1  0.195874  0.227061  0.694407  1
  O  O16  1  0.471514  0.461483  0.991266  1
  O  O17  1  0.672234  0.458327  0.607049  1
  O  O18  1  0.998095  0.744957  0.352265  1
  O  O19  1  0.866091  0.684264  0.224209  1
  O  O20  1  0.154792  0.405072  0.159882  1
  O  O21  1  0.162444  0.740798  0.042302  1
  O  O22  1  0.339162  0.718179  0.544535  1
  O  O23  1  0.203543  0.018978  0.915915  1
  O  O24  1  0.837556  0.240798  0.957698  1
  O  O25  1  0.528486  0.961483  0.008734  1
  O  O26  1  0.781626  0.447254  0.810038  1
  O  O27  1  0.660838  0.218179  0.455465  1
  O  O28  1  0.218374  0.947254  0.189962  1
  O  O29  1  0.353707  0.280165  0.272819  1
  O  O30  1  0.503832  0.230744  0.148893  1
  O  O31  1  0.317206  0.469600  0.689070  1
  O  O32  1  0.327766  0.958327  0.392951  1
  O  O33  1  0.853800  0.029071  0.109204  1
  O  O34  1  0.496168  0.730744  0.851107  1
  O  O35  1  0.001905  0.244957  0.647735  1
  O  O36  1  0.146200  0.529071  0.890796  1
  O  O37  1  0.310558  0.990064  0.675220  1
  O  O38  1  0.682794  0.969600  0.310930  1
  O  O39  1  0.314697  0.469111  0.411654  1
  O  O40  1  0.685303  0.969111  0.588346  1
  O  O41  1  0.796457  0.518978  0.084085  1
  O  O42  1  0.845208  0.905072  0.840118  1
  O  O43  1  0.646293  0.780165  0.727181  1
  O  O44  1  0.987250  0.473899  0.503043  1
  O  O45  1  0.012750  0.973899  0.496957  1
  O  O46  1  0.689442  0.490064  0.324780  1
  O  O47  1  0.133909  0.184264  0.775791  1
