# generated using pymatgen
data_NaLuO2
_symmetry_space_group_name_H-M   'P 1'
_cell_length_a   5.99042217
_cell_length_b   5.99042217
_cell_length_c   5.99042217
_cell_angle_alpha   135.52918415
_cell_angle_beta   135.52918415
_cell_angle_gamma   64.70906985
_symmetry_Int_Tables_number   1
_chemical_formula_structural   NaLuO2
_chemical_formula_sum   'Na2 Lu2 O4'
_cell_volume   104.01447563
_cell_formula_units_Z   2
loop_
 _symmetry_equiv_pos_site_id
 _symmetry_equiv_pos_as_xyz
  1  'x, y, z'
loop_
 _atom_site_type_symbol
 _atom_site_label
 _atom_site_symmetry_multiplicity
 _atom_site_fract_x
 _atom_site_fract_y
 _atom_site_fract_z
 _atom_site_occupancy
  Na  Na0  1  0.250000  0.750000  0.500000  1
  Na  Na1  1  0.500000  0.500000  0.000000  1
  Lu  Lu2  1  0.750000  0.250000  0.500000  1
  Lu  Lu3  1  0.000000  0.000000  0.000000  1
  O  O4  1  0.970171  0.470171  0.500000  1
  O  O5  1  0.779829  0.779829  0.000000  1
  O  O6  1  0.220171  0.220171  0.000000  1
  O  O7  1  0.529829  0.029829  0.500000  1
