# generated using pymatgen
data_Ba2Y5Cl19
_symmetry_space_group_name_H-M   'P 1'
_cell_length_a   9.19651587
_cell_length_b   7.43742783
_cell_length_c   29.75729041
_cell_angle_alpha   90.00000000
_cell_angle_beta   95.99613479
_cell_angle_gamma   90.00000000
_symmetry_Int_Tables_number   1
_chemical_formula_structural   Ba2Y5Cl19
_chemical_formula_sum   'Ba4 Y10 Cl38'
_cell_volume   2024.21621752
_cell_formula_units_Z   2
loop_
 _symmetry_equiv_pos_site_id
 _symmetry_equiv_pos_as_xyz
  1  'x, y, z'
loop_
 _atom_site_type_symbol
 _atom_site_label
 _atom_site_symmetry_multiplicity
 _atom_site_fract_x
 _atom_site_fract_y
 _atom_site_fract_z
 _atom_site_occupancy
  Ba  Ba0  1  0.227853  0.214374  0.242827  1
  Ba  Ba1  1  0.244536  0.290149  0.674508  1
  Ba  Ba2  1  0.755464  0.790149  0.325492  1
  Ba  Ba3  1  0.772147  0.714374  0.757173  1
  Y  Y4  1  0.165392  0.762498  0.470091  1
  Y  Y5  1  0.176969  0.743428  0.039093  1
  Y  Y6  1  0.146887  0.234948  0.826502  1
  Y  Y7  1  0.432094  0.270583  0.395912  1
  Y  Y8  1  0.539636  0.250128  0.103514  1
  Y  Y9  1  0.460364  0.750128  0.896486  1
  Y  Y10  1  0.567906  0.770583  0.604088  1
  Y  Y11  1  0.853113  0.734948  0.173498  1
  Y  Y12  1  0.823031  0.243428  0.960907  1
  Y  Y13  1  0.834608  0.262498  0.529909  1
  Cl  Cl14  1  0.036686  0.064664  0.493277  1
  Cl  Cl15  1  0.969529  0.434172  0.207046  1
  Cl  Cl16  1  0.060743  0.760051  0.116938  1
  Cl  Cl17  1  0.022444  0.895613  0.241475  1
  Cl  Cl18  1  0.028625  0.026224  0.002175  1
  Cl  Cl19  1  0.302385  0.453807  0.456558  1
  Cl  Cl20  1  0.978835  0.244269  0.609922  1
  Cl  Cl21  1  0.369734  0.955404  0.434097  1
  Cl  Cl22  1  0.190281  0.269405  0.340147  1
  Cl  Cl23  1  0.306776  0.445937  0.073658  1
  Cl  Cl24  1  0.352349  0.229983  0.771729  1
  Cl  Cl25  1  0.233157  0.550954  0.863043  1
  Cl  Cl26  1  0.472224  0.269474  0.186434  1
  Cl  Cl27  1  0.359455  0.721732  0.977034  1
  Cl  Cl28  1  0.375298  0.961339  0.083430  1
  Cl  Cl29  1  0.312325  0.058025  0.889612  1
  Cl  Cl30  1  0.439831  0.613634  0.671634  1
  Cl  Cl31  1  0.686374  0.259496  0.447911  1
  Cl  Cl32  1  0.520664  0.571828  0.361073  1
  Cl  Cl33  1  0.479336  0.071828  0.638927  1
  Cl  Cl34  1  0.313626  0.759496  0.552089  1
  Cl  Cl35  1  0.560169  0.113634  0.328366  1
  Cl  Cl36  1  0.687675  0.558025  0.110388  1
  Cl  Cl37  1  0.624702  0.461339  0.916570  1
  Cl  Cl38  1  0.640545  0.221732  0.022966  1
  Cl  Cl39  1  0.527776  0.769474  0.813566  1
  Cl  Cl40  1  0.766843  0.050954  0.136957  1
  Cl  Cl41  1  0.647651  0.729983  0.228271  1
  Cl  Cl42  1  0.693224  0.945937  0.926342  1
  Cl  Cl43  1  0.809719  0.769405  0.659853  1
  Cl  Cl44  1  0.630266  0.455404  0.565903  1
  Cl  Cl45  1  0.021165  0.744269  0.390078  1
  Cl  Cl46  1  0.697615  0.953807  0.543442  1
  Cl  Cl47  1  0.971375  0.526224  0.997825  1
  Cl  Cl48  1  0.977556  0.395613  0.758525  1
  Cl  Cl49  1  0.939257  0.260051  0.883062  1
  Cl  Cl50  1  0.030471  0.934172  0.792954  1
  Cl  Cl51  1  0.963314  0.564664  0.506723  1
