# generated using pymatgen
data_Li2MnP2O7
_symmetry_space_group_name_H-M   'P 1'
_cell_length_a   5.13762073
_cell_length_b   7.05019574
_cell_length_c   8.55882582
_cell_angle_alpha   93.14207340
_cell_angle_beta   92.50964789
_cell_angle_gamma   108.09107214
_symmetry_Int_Tables_number   1
_chemical_formula_structural   Li2MnP2O7
_chemical_formula_sum   'Li4 Mn2 P4 O14'
_cell_volume   293.63804286
_cell_formula_units_Z   2
loop_
 _symmetry_equiv_pos_site_id
 _symmetry_equiv_pos_as_xyz
  1  'x, y, z'
loop_
 _atom_site_type_symbol
 _atom_site_label
 _atom_site_symmetry_multiplicity
 _atom_site_fract_x
 _atom_site_fract_y
 _atom_site_fract_z
 _atom_site_occupancy
  Li  Li0  1  0.585913  0.641622  0.866122  1
  Li  Li1  1  0.020561  0.312052  0.673303  1
  Li  Li2  1  0.058415  0.946225  0.418334  1
  Li  Li3  1  0.414492  0.373165  0.141659  1
  Mn  Mn4  1  0.514556  0.507226  0.495363  1
  Mn  Mn5  1  0.002802  0.001057  0.007319  1
  P  P6  1  0.544453  0.159859  0.782963  1
  P  P7  1  0.118774  0.749940  0.698109  1
  P  P8  1  0.881100  0.246861  0.307221  1
  P  P9  1  0.461086  0.839177  0.218455  1
  O  O10  1  0.401514  0.207469  0.926710  1
  O  O11  1  0.984447  0.745212  0.854551  1
  O  O12  1  0.800728  0.097639  0.812390  1
  O  O13  1  0.295186  0.607304  0.697291  1
  O  O14  1  0.618075  0.331406  0.673849  1
  O  O15  1  0.319859  0.976056  0.675713  1
  O  O16  1  0.920947  0.720118  0.553896  1
  O  O17  1  0.084675  0.278410  0.451137  1
  O  O18  1  0.717339  0.006951  0.322058  1
  O  O19  1  0.393361  0.660264  0.317003  1
  O  O20  1  0.672477  0.359628  0.311034  1
  O  O21  1  0.228944  0.932274  0.208245  1
  O  O22  1  0.019385  0.263796  0.151560  1
  O  O23  1  0.577626  0.798958  0.061966  1
