# generated using pymatgen
data_Ta3InO9
_symmetry_space_group_name_H-M   'P 1'
_cell_length_a   5.19664371
_cell_length_b   7.49052997
_cell_length_c   8.37167919
_cell_angle_alpha   90.00000000
_cell_angle_beta   92.23621757
_cell_angle_gamma   90.00000000
_symmetry_Int_Tables_number   1
_chemical_formula_structural   Ta3InO9
_chemical_formula_sum   'Ta6 In2 O18'
_cell_volume   325.62459665
_cell_formula_units_Z   2
loop_
 _symmetry_equiv_pos_site_id
 _symmetry_equiv_pos_as_xyz
  1  'x, y, z'
loop_
 _atom_site_type_symbol
 _atom_site_label
 _atom_site_symmetry_multiplicity
 _atom_site_fract_x
 _atom_site_fract_y
 _atom_site_fract_z
 _atom_site_occupancy
  Ta  Ta0  1  0.000000  0.000000  0.000000  1
  Ta  Ta1  1  0.000000  0.500000  0.000000  1
  Ta  Ta2  1  0.529294  0.493357  0.305178  1
  Ta  Ta3  1  0.529294  0.006643  0.305178  1
  Ta  Ta4  1  0.470706  0.993357  0.694822  1
  Ta  Ta5  1  0.470706  0.506643  0.694822  1
  In  In6  1  0.971443  0.250000  0.559691  1
  In  In7  1  0.028557  0.750000  0.440309  1
  O  O8  1  0.899855  0.250000  0.024755  1
  O  O9  1  0.850832  0.931881  0.214211  1
  O  O10  1  0.850832  0.568119  0.214211  1
  O  O11  1  0.745067  0.949230  0.528534  1
  O  O12  1  0.745067  0.550770  0.528534  1
  O  O13  1  0.671811  0.250000  0.349418  1
  O  O14  1  0.670688  0.945022  0.879040  1
  O  O15  1  0.670688  0.554978  0.879040  1
  O  O16  1  0.599112  0.250000  0.680681  1
  O  O17  1  0.400888  0.750000  0.319319  1
  O  O18  1  0.329312  0.054978  0.120960  1
  O  O19  1  0.329312  0.445022  0.120960  1
  O  O20  1  0.328189  0.750000  0.650582  1
  O  O21  1  0.254933  0.050770  0.471466  1
  O  O22  1  0.254933  0.449230  0.471466  1
  O  O23  1  0.149168  0.068119  0.785789  1
  O  O24  1  0.149168  0.431881  0.785789  1
  O  O25  1  0.100145  0.750000  0.975245  1
