# generated using pymatgen
data_Li5VO4F
_symmetry_space_group_name_H-M   'P 1'
_cell_length_a   5.13703186
_cell_length_b   5.13703186
_cell_length_c   5.81470065
_cell_angle_alpha   73.65085064
_cell_angle_beta   106.34914936
_cell_angle_gamma   133.92412391
_symmetry_Int_Tables_number   1
_chemical_formula_structural   Li5VO4F
_chemical_formula_sum   'Li5 V1 O4 F1'
_cell_volume   105.22252770
_cell_formula_units_Z   1
loop_
 _symmetry_equiv_pos_site_id
 _symmetry_equiv_pos_as_xyz
  1  'x, y, z'
loop_
 _atom_site_type_symbol
 _atom_site_label
 _atom_site_symmetry_multiplicity
 _atom_site_fract_x
 _atom_site_fract_y
 _atom_site_fract_z
 _atom_site_occupancy
  Li  Li0  1  0.670012  0.329988  0.889096  1
  Li  Li1  1  0.695780  0.304220  0.342881  1
  Li  Li2  1  0.289976  0.710024  0.696332  1
  Li  Li3  1  0.316866  0.683134  0.144864  1
  Li  Li4  1  0.986220  0.013780  0.521507  1
  V  V5  1  0.976527  0.023473  0.984924  1
  O  O6  1  0.133143  0.866857  0.852179  1
  O  O7  1  0.490595  0.509405  0.015233  1
  O  O8  1  0.825520  0.174480  0.686031  1
  O  O9  1  0.854129  0.145871  0.189286  1
  F  F10  1  0.159872  0.840128  0.351163  1
