# generated using pymatgen
data_Cs3ScO3
_symmetry_space_group_name_H-M   'P 1'
_cell_length_a   7.45224683
_cell_length_b   7.45224683
_cell_length_c   7.44461439
_cell_angle_alpha   83.05845799
_cell_angle_beta   96.94154201
_cell_angle_gamma   64.36900284
_symmetry_Int_Tables_number   1
_chemical_formula_structural   Cs3ScO3
_chemical_formula_sum   'Cs6 Sc2 O6'
_cell_volume   363.03838441
_cell_formula_units_Z   2
loop_
 _symmetry_equiv_pos_site_id
 _symmetry_equiv_pos_as_xyz
  1  'x, y, z'
loop_
 _atom_site_type_symbol
 _atom_site_label
 _atom_site_symmetry_multiplicity
 _atom_site_fract_x
 _atom_site_fract_y
 _atom_site_fract_z
 _atom_site_occupancy
  Cs  Cs0  1  0.634507  0.365493  0.343396  1
  Cs  Cs1  1  0.796957  0.796957  0.500000  1
  Cs  Cs2  1  0.203043  0.203043  0.500000  1
  Cs  Cs3  1  0.738810  0.738810  0.000000  1
  Cs  Cs4  1  0.261190  0.261190  0.000000  1
  Cs  Cs5  1  0.365493  0.634507  0.656604  1
  Sc  Sc6  1  0.834700  0.165300  0.853323  1
  Sc  Sc7  1  0.165300  0.834700  0.146677  1
  O  O8  1  0.905557  0.094443  0.139245  1
  O  O9  1  0.584077  0.158628  0.738489  1
  O  O10  1  0.841372  0.415923  0.738489  1
  O  O11  1  0.158628  0.584077  0.261511  1
  O  O12  1  0.415923  0.841372  0.261511  1
  O  O13  1  0.094443  0.905557  0.860755  1
