# generated using pymatgen
data_Li8SbS6
_symmetry_space_group_name_H-M   'P 1'
_cell_length_a   7.06660638
_cell_length_b   7.06660638
_cell_length_c   13.46171664
_cell_angle_alpha   90.00000000
_cell_angle_beta   90.00000000
_cell_angle_gamma   120.00000000
_symmetry_Int_Tables_number   1
_chemical_formula_structural   Li8SbS6
_chemical_formula_sum   'Li16 Sb2 S12'
_cell_volume   582.17409843
_cell_formula_units_Z   2
loop_
 _symmetry_equiv_pos_site_id
 _symmetry_equiv_pos_as_xyz
  1  'x, y, z'
loop_
 _atom_site_type_symbol
 _atom_site_label
 _atom_site_symmetry_multiplicity
 _atom_site_fract_x
 _atom_site_fract_y
 _atom_site_fract_z
 _atom_site_occupancy
  Li  Li0  1  0.000000  0.675660  0.765461  1
  Li  Li1  1  0.000000  0.613694  0.132412  1
  Li  Li2  1  0.000000  0.386306  0.632412  1
  Li  Li3  1  0.000000  0.324340  0.265461  1
  Li  Li4  1  0.333333  0.666667  0.397351  1
  Li  Li5  1  0.333333  0.666667  0.897351  1
  Li  Li6  1  0.324340  0.324340  0.765461  1
  Li  Li7  1  0.386306  0.386306  0.132412  1
  Li  Li8  1  0.613694  0.613694  0.632412  1
  Li  Li9  1  0.324340  0.000000  0.265461  1
  Li  Li10  1  0.675660  0.675660  0.265461  1
  Li  Li11  1  0.386306  0.000000  0.632412  1
  Li  Li12  1  0.666667  0.333333  0.897351  1
  Li  Li13  1  0.666667  0.333333  0.397351  1
  Li  Li14  1  0.613694  0.000000  0.132412  1
  Li  Li15  1  0.675660  0.000000  0.765461  1
  Sb  Sb16  1  0.000000  0.000000  0.993737  1
  Sb  Sb17  1  0.000000  0.000000  0.493737  1
  S  S18  1  0.000000  0.657534  0.950496  1
  S  S19  1  0.000000  0.342466  0.450496  1
  S  S20  1  0.333333  0.666667  0.214495  1
  S  S21  1  0.000000  0.000000  0.183171  1
  S  S22  1  0.000000  0.000000  0.683171  1
  S  S23  1  0.333333  0.666667  0.714495  1
  S  S24  1  0.342466  0.342466  0.950496  1
  S  S25  1  0.342466  0.000000  0.450496  1
  S  S26  1  0.657534  0.657534  0.450496  1
  S  S27  1  0.666667  0.333333  0.714495  1
  S  S28  1  0.666667  0.333333  0.214495  1
  S  S29  1  0.657534  0.000000  0.950496  1
