# generated using pymatgen
data_Li3TiMn3O8
_symmetry_space_group_name_H-M   'P 1'
_cell_length_a   5.90700005
_cell_length_b   6.11218950
_cell_length_c   14.66390089
_cell_angle_alpha   94.81863076
_cell_angle_beta   90.76505766
_cell_angle_gamma   118.20706909
_symmetry_Int_Tables_number   1
_chemical_formula_structural   Li3TiMn3O8
_chemical_formula_sum   'Li9 Ti3 Mn9 O24'
_cell_volume   464.06432508
_cell_formula_units_Z   3
loop_
 _symmetry_equiv_pos_site_id
 _symmetry_equiv_pos_as_xyz
  1  'x, y, z'
loop_
 _atom_site_type_symbol
 _atom_site_label
 _atom_site_symmetry_multiplicity
 _atom_site_fract_x
 _atom_site_fract_y
 _atom_site_fract_z
 _atom_site_occupancy
  Li  Li0  1  0.341866  0.174290  0.335561  1
  Li  Li1  1  0.167542  0.834226  0.168509  1
  Li  Li2  1  0.000000  0.500000  0.000000  1
  Li  Li3  1  0.832458  0.165774  0.831491  1
  Li  Li4  1  0.171305  0.343713  0.668760  1
  Li  Li5  1  0.658134  0.825710  0.664439  1
  Li  Li6  1  0.000000  0.000000  0.500000  1
  Li  Li7  1  0.828695  0.656287  0.331240  1
  Li  Li8  1  0.500000  0.000000  0.000000  1
  Ti  Ti9  1  0.662633  0.342657  0.663271  1
  Ti  Ti10  1  0.337367  0.657343  0.336729  1
  Ti  Ti11  1  0.000000  0.000000  0.000000  1
  Mn  Mn12  1  0.833219  0.666209  0.833190  1
  Mn  Mn13  1  0.500000  0.000000  0.500000  1
  Mn  Mn14  1  0.829766  0.168746  0.329924  1
  Mn  Mn15  1  0.665439  0.834422  0.166155  1
  Mn  Mn16  1  0.166781  0.333791  0.166810  1
  Mn  Mn17  1  0.500000  0.500000  0.000000  1
  Mn  Mn18  1  0.334561  0.165578  0.833845  1
  Mn  Mn19  1  0.170234  0.831254  0.670076  1
  Mn  Mn20  1  0.000000  0.500000  0.500000  1
  O  O21  1  0.136103  0.825885  0.920094  1
  O  O22  1  0.699114  0.336253  0.412882  1
  O  O23  1  0.959562  0.483362  0.750580  1
  O  O24  1  0.501468  0.960976  0.257407  1
  O  O25  1  0.808557  0.158015  0.583384  1
  O  O26  1  0.359752  0.669663  0.081862  1
  O  O27  1  0.151342  0.357189  0.408103  1
  O  O28  1  0.650757  0.843881  0.416097  1
  O  O29  1  0.699827  0.843307  0.914755  1
  O  O30  1  0.175004  0.300065  0.924942  1
  O  O31  1  0.971782  0.995702  0.249205  1
  O  O32  1  0.469898  0.492671  0.255998  1
  O  O33  1  0.530102  0.507329  0.744002  1
  O  O34  1  0.028218  0.004298  0.750795  1
  O  O35  1  0.824996  0.699935  0.075058  1
  O  O36  1  0.300173  0.156693  0.085245  1
  O  O37  1  0.349243  0.156119  0.583903  1
  O  O38  1  0.848658  0.642811  0.591897  1
  O  O39  1  0.640248  0.330337  0.918138  1
  O  O40  1  0.191443  0.841985  0.416616  1
  O  O41  1  0.498532  0.039024  0.742593  1
  O  O42  1  0.040438  0.516638  0.249420  1
  O  O43  1  0.300886  0.663747  0.587118  1
  O  O44  1  0.863897  0.174115  0.079906  1
