# generated using pymatgen
data_LiMn2O2F3
_symmetry_space_group_name_H-M   'P 1'
_cell_length_a   5.28277950
_cell_length_b   5.28277950
_cell_length_c   10.61653120
_cell_angle_alpha   90.00000000
_cell_angle_beta   90.00000000
_cell_angle_gamma   138.04824840
_symmetry_Int_Tables_number   1
_chemical_formula_structural   LiMn2O2F3
_chemical_formula_sum   'Li2 Mn4 O4 F6'
_cell_volume   198.06693911
_cell_formula_units_Z   2
loop_
 _symmetry_equiv_pos_site_id
 _symmetry_equiv_pos_as_xyz
  1  'x, y, z'
loop_
 _atom_site_type_symbol
 _atom_site_label
 _atom_site_symmetry_multiplicity
 _atom_site_fract_x
 _atom_site_fract_y
 _atom_site_fract_z
 _atom_site_occupancy
  Li  Li0  1  0.831548  0.168452  0.250000  1
  Li  Li1  1  0.168452  0.831548  0.750000  1
  Mn  Mn2  1  0.844937  0.155063  0.558285  1
  Mn  Mn3  1  0.844937  0.155063  0.941715  1
  Mn  Mn4  1  0.155063  0.844937  0.058285  1
  Mn  Mn5  1  0.155063  0.844937  0.441715  1
  O  O6  1  0.691487  0.308513  0.441727  1
  O  O7  1  0.691487  0.308513  0.058273  1
  O  O8  1  0.308513  0.691487  0.558273  1
  O  O9  1  0.308513  0.691487  0.941727  1
  F  F10  1  0.971914  0.028086  0.120900  1
  F  F11  1  0.971914  0.028086  0.379100  1
  F  F12  1  0.749580  0.250420  0.750000  1
  F  F13  1  0.250420  0.749580  0.250000  1
  F  F14  1  0.028086  0.971914  0.620900  1
  F  F15  1  0.028086  0.971914  0.879100  1
