# generated using pymatgen
data_LiCoSiO4
_symmetry_space_group_name_H-M   'P 1'
_cell_length_a   8.51249867
_cell_length_b   8.51249867
_cell_length_c   8.51249867
_cell_angle_alpha   107.18574847
_cell_angle_beta   107.18574847
_cell_angle_gamma   107.18574847
_symmetry_Int_Tables_number   1
_chemical_formula_structural   LiCoSiO4
_chemical_formula_sum   'Li6 Co6 Si6 O24'
_cell_volume   511.08334279
_cell_formula_units_Z   6
loop_
 _symmetry_equiv_pos_site_id
 _symmetry_equiv_pos_as_xyz
  1  'x, y, z'
loop_
 _atom_site_type_symbol
 _atom_site_label
 _atom_site_symmetry_multiplicity
 _atom_site_fract_x
 _atom_site_fract_y
 _atom_site_fract_z
 _atom_site_occupancy
  Li  Li0  1  0.228384  0.456057  0.054771  1
  Li  Li1  1  0.945229  0.771616  0.543943  1
  Li  Li2  1  0.543943  0.945229  0.771616  1
  Li  Li3  1  0.456057  0.054771  0.228384  1
  Li  Li4  1  0.054771  0.228384  0.456057  1
  Li  Li5  1  0.771616  0.543943  0.945229  1
  Co  Co6  1  0.568411  0.800540  0.395615  1
  Co  Co7  1  0.604385  0.431589  0.199460  1
  Co  Co8  1  0.199460  0.604385  0.431589  1
  Co  Co9  1  0.800540  0.395615  0.568411  1
  Co  Co10  1  0.395615  0.568411  0.800540  1
  Co  Co11  1  0.431589  0.199460  0.604385  1
  Si  Si12  1  0.730438  0.904769  0.133016  1
  Si  Si13  1  0.095231  0.866984  0.269562  1
  Si  Si14  1  0.866984  0.269562  0.095231  1
  Si  Si15  1  0.133016  0.730438  0.904769  1
  Si  Si16  1  0.904769  0.133016  0.730438  1
  Si  Si17  1  0.269562  0.095231  0.866984  1
  O  O18  1  0.946568  0.960497  0.262760  1
  O  O19  1  0.039503  0.737240  0.053432  1
  O  O20  1  0.613793  0.928454  0.251144  1
  O  O21  1  0.071546  0.748856  0.386207  1
  O  O22  1  0.700485  0.973091  0.641373  1
  O  O23  1  0.341420  0.637664  0.298392  1
  O  O24  1  0.748856  0.386207  0.071546  1
  O  O25  1  0.701608  0.658580  0.362336  1
  O  O26  1  0.358627  0.299515  0.026909  1
  O  O27  1  0.026909  0.358627  0.299515  1
  O  O28  1  0.362336  0.701608  0.658580  1
  O  O29  1  0.737240  0.053432  0.039503  1
  O  O30  1  0.262760  0.946568  0.960497  1
  O  O31  1  0.637664  0.298392  0.341420  1
  O  O32  1  0.973091  0.641373  0.700485  1
  O  O33  1  0.641373  0.700485  0.973091  1
  O  O34  1  0.298392  0.341420  0.637664  1
  O  O35  1  0.251144  0.613793  0.928454  1
  O  O36  1  0.658580  0.362336  0.701608  1
  O  O37  1  0.299515  0.026909  0.358627  1
  O  O38  1  0.928454  0.251144  0.613793  1
  O  O39  1  0.386207  0.071546  0.748856  1
  O  O40  1  0.960497  0.262760  0.946568  1
  O  O41  1  0.053432  0.039503  0.737240  1
