# generated using pymatgen
data_Li4V3SiO10
_symmetry_space_group_name_H-M   'P 1'
_cell_length_a   5.13032763
_cell_length_b   6.04902566
_cell_length_c   8.30505569
_cell_angle_alpha   90.41413254
_cell_angle_beta   107.94818278
_cell_angle_gamma   90.12220383
_symmetry_Int_Tables_number   1
_chemical_formula_structural   Li4V3SiO10
_chemical_formula_sum   'Li4 V3 Si1 O10'
_cell_volume   245.18331748
_cell_formula_units_Z   1
loop_
 _symmetry_equiv_pos_site_id
 _symmetry_equiv_pos_as_xyz
  1  'x, y, z'
loop_
 _atom_site_type_symbol
 _atom_site_label
 _atom_site_symmetry_multiplicity
 _atom_site_fract_x
 _atom_site_fract_y
 _atom_site_fract_z
 _atom_site_occupancy
  Li  Li0  1  0.020909  0.343325  0.888233  1
  Li  Li1  1  0.631153  0.353779  0.125098  1
  Li  Li2  1  0.137125  0.662356  0.114272  1
  Li  Li3  1  0.523680  0.657755  0.900106  1
  V  V4  1  0.433651  0.162750  0.720535  1
  V  V5  1  0.207852  0.161119  0.285387  1
  V  V6  1  0.922978  0.828016  0.701379  1
  Si  Si7  1  0.708631  0.845930  0.277834  1
  O  O8  1  0.799645  0.107455  0.745649  1
  O  O9  1  0.549179  0.090740  0.255807  1
  O  O10  1  0.262702  0.245974  0.502398  1
  O  O11  1  0.399408  0.337529  0.879577  1
  O  O12  1  0.027512  0.341594  0.130320  1
  O  O13  1  0.533649  0.666053  0.142946  1
  O  O14  1  0.891751  0.653960  0.860365  1
  O  O15  1  0.767206  0.766205  0.475559  1
  O  O16  1  0.298037  0.884411  0.750193  1
  O  O17  1  0.008932  0.891050  0.244343  1
