# generated using pymatgen
data_Li4TiNi5(PO4)6
_symmetry_space_group_name_H-M   'P 1'
_cell_length_a   8.38947782
_cell_length_b   8.46470869
_cell_length_c   8.48317874
_cell_angle_alpha   62.36554405
_cell_angle_beta   62.65352280
_cell_angle_gamma   62.58600675
_symmetry_Int_Tables_number   1
_chemical_formula_structural   Li4TiNi5(PO4)6
_chemical_formula_sum   'Li4 Ti1 Ni5 P6 O24'
_cell_volume   450.03450319
_cell_formula_units_Z   1
loop_
 _symmetry_equiv_pos_site_id
 _symmetry_equiv_pos_as_xyz
  1  'x, y, z'
loop_
 _atom_site_type_symbol
 _atom_site_label
 _atom_site_symmetry_multiplicity
 _atom_site_fract_x
 _atom_site_fract_y
 _atom_site_fract_z
 _atom_site_occupancy
  Li  Li0  1  0.252017  0.642311  0.850849  1
  Li  Li1  1  0.713274  0.349025  0.151028  1
  Li  Li2  1  0.354972  0.147360  0.710637  1
  Li  Li3  1  0.145942  0.710731  0.354262  1
  Ti  Ti4  1  0.147855  0.149693  0.152248  1
  Ni  Ni5  1  0.990846  0.000385  0.999118  1
  Ni  Ni6  1  0.641352  0.645223  0.642509  1
  Ni  Ni7  1  0.507042  0.498027  0.497157  1
  Ni  Ni8  1  0.857161  0.855534  0.853550  1
  Ni  Ni9  1  0.355413  0.352569  0.352897  1
  P  P10  1  0.946269  0.556426  0.257101  1
  P  P11  1  0.559034  0.249209  0.950634  1
  P  P12  1  0.252237  0.951390  0.555925  1
  P  P13  1  0.753827  0.043309  0.454284  1
  P  P14  1  0.445056  0.751457  0.041454  1
  P  P15  1  0.052819  0.456812  0.754707  1
  O  O16  1  0.529576  0.316838  0.103384  1
  O  O17  1  0.321168  0.104001  0.524902  1
  O  O18  1  0.099201  0.522948  0.329417  1
  O  O19  1  0.941349  0.742696  0.091924  1
  O  O20  1  0.009723  0.386072  0.186353  1
  O  O21  1  0.752259  0.556751  0.406510  1
  O  O22  1  0.751549  0.095630  0.926375  1
  O  O23  1  0.539936  0.410238  0.764453  1
  O  O24  1  0.834882  0.002835  0.599081  1
  O  O25  1  0.397823  0.752298  0.562621  1
  O  O26  1  0.903532  0.082540  0.244795  1
  O  O27  1  0.604520  0.822681  0.982504  1
  O  O28  1  0.388474  0.175737  0.015783  1
  O  O29  1  0.101694  0.925632  0.752985  1
  O  O30  1  0.596494  0.244108  0.437531  1
  O  O31  1  0.181874  0.011062  0.387931  1
  O  O32  1  0.437919  0.593570  0.239752  1
  O  O33  1  0.239760  0.905336  0.085994  1
  O  O34  1  0.249673  0.432804  0.593338  1
  O  O35  1  0.041029  0.599462  0.824298  1
  O  O36  1  0.081208  0.249302  0.906429  1
  O  O37  1  0.883508  0.500505  0.704575  1
  O  O38  1  0.690503  0.890713  0.479208  1
  O  O39  1  0.447236  0.693782  0.894494  1
