# generated using pymatgen
data_Li4MnFe3O8
_symmetry_space_group_name_H-M   'P 1'
_cell_length_a   5.09372623
_cell_length_b   5.53105223
_cell_length_c   6.65194046
_cell_angle_alpha   90.24102890
_cell_angle_beta   90.18082263
_cell_angle_gamma   92.02782421
_symmetry_Int_Tables_number   1
_chemical_formula_structural   Li4MnFe3O8
_chemical_formula_sum   'Li4 Mn1 Fe3 O8'
_cell_volume   187.28950320
_cell_formula_units_Z   1
loop_
 _symmetry_equiv_pos_site_id
 _symmetry_equiv_pos_as_xyz
  1  'x, y, z'
loop_
 _atom_site_type_symbol
 _atom_site_label
 _atom_site_symmetry_multiplicity
 _atom_site_fract_x
 _atom_site_fract_y
 _atom_site_fract_z
 _atom_site_occupancy
  Li  Li0  1  0.997501  0.917132  0.378119  1
  Li  Li1  1  0.493573  0.583150  0.875974  1
  Li  Li2  1  0.990296  0.419791  0.123843  1
  Li  Li3  1  0.498546  0.086672  0.624041  1
  Mn  Mn4  1  0.498959  0.083549  0.127787  1
  Fe  Fe5  1  0.002452  0.916237  0.870942  1
  Fe  Fe6  1  0.494482  0.586641  0.374012  1
  Fe  Fe7  1  0.995529  0.416788  0.624335  1
  O  O8  1  0.377664  0.940123  0.875660  1
  O  O9  1  0.401327  0.917182  0.374049  1
  O  O10  1  0.890839  0.582983  0.862822  1
  O  O11  1  0.871139  0.567165  0.384967  1
  O  O12  1  0.372536  0.432684  0.614400  1
  O  O13  1  0.375024  0.416155  0.139309  1
  O  O14  1  0.891438  0.083755  0.635490  1
  O  O15  1  0.875094  0.049996  0.114249  1
