# generated using pymatgen
data_LiNiP2O7
_symmetry_space_group_name_H-M   'P 1'
_cell_length_a   6.31405426
_cell_length_b   6.31405426
_cell_length_c   13.60030029
_cell_angle_alpha   76.97936150
_cell_angle_beta   103.02063850
_cell_angle_gamma   99.14476791
_symmetry_Int_Tables_number   1
_chemical_formula_structural   LiNiP2O7
_chemical_formula_sum   'Li4 Ni4 P8 O28'
_cell_volume   511.33145462
_cell_formula_units_Z   4
loop_
 _symmetry_equiv_pos_site_id
 _symmetry_equiv_pos_as_xyz
  1  'x, y, z'
loop_
 _atom_site_type_symbol
 _atom_site_label
 _atom_site_symmetry_multiplicity
 _atom_site_fract_x
 _atom_site_fract_y
 _atom_site_fract_z
 _atom_site_occupancy
  Li  Li0  1  0.277277  0.719118  0.166808  1
  Li  Li1  1  0.719118  0.277277  0.333192  1
  Li  Li2  1  0.280882  0.722723  0.666808  1
  Li  Li3  1  0.722723  0.280882  0.833192  1
  Ni  Ni4  1  0.357640  0.915942  0.857909  1
  Ni  Ni5  1  0.084058  0.642360  0.357909  1
  Ni  Ni6  1  0.915942  0.357640  0.642091  1
  Ni  Ni7  1  0.642360  0.084058  0.142091  1
  P  P8  1  0.625338  0.760668  0.365525  1
  P  P9  1  0.765025  0.852789  0.585757  1
  P  P10  1  0.852789  0.765025  0.914243  1
  P  P11  1  0.239332  0.374662  0.865525  1
  P  P12  1  0.760668  0.625338  0.134475  1
  P  P13  1  0.147211  0.234975  0.085757  1
  P  P14  1  0.234975  0.147211  0.414243  1
  P  P15  1  0.374662  0.239332  0.634475  1
  O  O16  1  0.776300  0.580706  0.384504  1
  O  O17  1  0.937528  0.692118  0.619616  1
  O  O18  1  0.580706  0.776300  0.115496  1
  O  O19  1  0.702918  0.973246  0.296407  1
  O  O20  1  0.800332  0.597305  0.844796  1
  O  O21  1  0.387731  0.676209  0.326999  1
  O  O22  1  0.627851  0.823050  0.473825  1
  O  O23  1  0.090082  0.866634  0.921950  1
  O  O24  1  0.866634  0.090082  0.578050  1
  O  O25  1  0.597305  0.800332  0.655204  1
  O  O26  1  0.823050  0.627851  0.026175  1
  O  O27  1  0.307882  0.062472  0.119616  1
  O  O28  1  0.676209  0.387731  0.173001  1
  O  O29  1  0.973246  0.702918  0.203593  1
  O  O30  1  0.026754  0.297082  0.796407  1
  O  O31  1  0.323791  0.612269  0.826999  1
  O  O32  1  0.692118  0.937528  0.880384  1
  O  O33  1  0.176950  0.372149  0.973825  1
  O  O34  1  0.402695  0.199668  0.344796  1
  O  O35  1  0.133366  0.909918  0.421950  1
  O  O36  1  0.909918  0.133366  0.078050  1
  O  O37  1  0.372149  0.176950  0.526175  1
  O  O38  1  0.612269  0.323791  0.673001  1
  O  O39  1  0.199668  0.402695  0.155204  1
  O  O40  1  0.297082  0.026754  0.703593  1
  O  O41  1  0.419294  0.223700  0.884504  1
  O  O42  1  0.062472  0.307882  0.380384  1
  O  O43  1  0.223700  0.419294  0.615496  1
