# generated using pymatgen
data_Li9Mn2AlO8
_symmetry_space_group_name_H-M   'P 1'
_cell_length_a   6.52018419
_cell_length_b   7.64875648
_cell_length_c   16.22827812
_cell_angle_alpha   90.00000000
_cell_angle_beta   90.00000000
_cell_angle_gamma   90.00000000
_symmetry_Int_Tables_number   1
_chemical_formula_structural   Li9Mn2AlO8
_chemical_formula_sum   'Li36 Mn8 Al4 O32'
_cell_volume   809.32534404
_cell_formula_units_Z   4
loop_
 _symmetry_equiv_pos_site_id
 _symmetry_equiv_pos_as_xyz
  1  'x, y, z'
loop_
 _atom_site_type_symbol
 _atom_site_label
 _atom_site_symmetry_multiplicity
 _atom_site_fract_x
 _atom_site_fract_y
 _atom_site_fract_z
 _atom_site_occupancy
  Li  Li0  1  0.523137  0.532339  0.068837  1
  Li  Li1  1  0.976863  0.532339  0.068837  1
  Li  Li2  1  0.250000  0.339009  0.138791  1
  Li  Li3  1  0.508400  0.105059  0.121433  1
  Li  Li4  1  0.991600  0.105059  0.121433  1
  Li  Li5  1  0.750000  0.331784  0.166011  1
  Li  Li6  1  0.250000  0.801690  0.194706  1
  Li  Li7  1  0.010162  0.548712  0.209479  1
  Li  Li8  1  0.489838  0.548712  0.209479  1
  Li  Li9  1  0.510162  0.048712  0.290521  1
  Li  Li10  1  0.989838  0.048712  0.290521  1
  Li  Li11  1  0.750000  0.301690  0.305294  1
  Li  Li12  1  0.250000  0.831784  0.333989  1
  Li  Li13  1  0.491600  0.605059  0.378567  1
  Li  Li14  1  0.008400  0.605059  0.378567  1
  Li  Li15  1  0.750000  0.839009  0.361209  1
  Li  Li16  1  0.023137  0.032339  0.431163  1
  Li  Li17  1  0.476863  0.032339  0.431163  1
  Li  Li18  1  0.523137  0.967661  0.568837  1
  Li  Li19  1  0.976863  0.967661  0.568837  1
  Li  Li20  1  0.250000  0.160991  0.638791  1
  Li  Li21  1  0.991600  0.394941  0.621433  1
  Li  Li22  1  0.508400  0.394941  0.621433  1
  Li  Li23  1  0.750000  0.168216  0.666011  1
  Li  Li24  1  0.250000  0.698310  0.694706  1
  Li  Li25  1  0.010162  0.951288  0.709479  1
  Li  Li26  1  0.489838  0.951288  0.709479  1
  Li  Li27  1  0.510162  0.451288  0.790521  1
  Li  Li28  1  0.989838  0.451288  0.790521  1
  Li  Li29  1  0.750000  0.198310  0.805294  1
  Li  Li30  1  0.250000  0.668216  0.833989  1
  Li  Li31  1  0.491600  0.894941  0.878567  1
  Li  Li32  1  0.008400  0.894941  0.878567  1
  Li  Li33  1  0.750000  0.660991  0.861209  1
  Li  Li34  1  0.023137  0.467661  0.931163  1
  Li  Li35  1  0.476863  0.467661  0.931163  1
  Mn  Mn36  1  0.250000  0.772921  0.030498  1
  Mn  Mn37  1  0.750000  0.802365  0.195505  1
  Mn  Mn38  1  0.250000  0.302365  0.304495  1
  Mn  Mn39  1  0.750000  0.272921  0.469502  1
  Mn  Mn40  1  0.250000  0.727079  0.530498  1
  Mn  Mn41  1  0.750000  0.697635  0.695505  1
  Mn  Mn42  1  0.250000  0.197635  0.804495  1
  Mn  Mn43  1  0.750000  0.227079  0.969502  1
  Al  Al44  1  0.750000  0.839251  0.000524  1
  Al  Al45  1  0.250000  0.339251  0.499476  1
  Al  Al46  1  0.750000  0.660749  0.500524  1
  Al  Al47  1  0.250000  0.160749  0.999476  1
  O  O48  1  0.470508  0.291815  0.024384  1
  O  O49  1  0.029492  0.291815  0.024384  1
  O  O50  1  0.250000  0.012717  0.088336  1
  O  O51  1  0.250000  0.590560  0.129668  1
  O  O52  1  0.750000  0.564431  0.141192  1
  O  O53  1  0.750000  0.967938  0.093070  1
  O  O54  1  0.999120  0.277685  0.224240  1
  O  O55  1  0.500880  0.277685  0.224240  1
  O  O56  1  0.499120  0.777685  0.275760  1
  O  O57  1  0.000880  0.777685  0.275760  1
  O  O58  1  0.250000  0.467938  0.406930  1
  O  O59  1  0.250000  0.064431  0.358808  1
  O  O60  1  0.750000  0.090560  0.370332  1
  O  O61  1  0.750000  0.512717  0.411664  1
  O  O62  1  0.970508  0.791815  0.475616  1
  O  O63  1  0.529492  0.791815  0.475616  1
  O  O64  1  0.470508  0.208185  0.524384  1
  O  O65  1  0.029492  0.208185  0.524384  1
  O  O66  1  0.250000  0.487283  0.588336  1
  O  O67  1  0.250000  0.909440  0.629668  1
  O  O68  1  0.750000  0.935569  0.641192  1
  O  O69  1  0.750000  0.532062  0.593070  1
  O  O70  1  0.999120  0.222315  0.724240  1
  O  O71  1  0.500880  0.222315  0.724240  1
  O  O72  1  0.499120  0.722315  0.775760  1
  O  O73  1  0.000880  0.722315  0.775760  1
  O  O74  1  0.250000  0.032062  0.906930  1
  O  O75  1  0.250000  0.435569  0.858808  1
  O  O76  1  0.750000  0.409440  0.870332  1
  O  O77  1  0.750000  0.987283  0.911664  1
  O  O78  1  0.970508  0.708185  0.975616  1
  O  O79  1  0.529492  0.708185  0.975616  1
