# generated using pymatgen
data_Ce3Th4O14
_symmetry_space_group_name_H-M   'P 1'
_cell_length_a   6.80592366
_cell_length_b   6.80592366
_cell_length_c   8.78923610
_cell_angle_alpha   82.59189459
_cell_angle_beta   97.40810541
_cell_angle_gamma   131.79357114
_symmetry_Int_Tables_number   1
_chemical_formula_structural   Ce3Th4O14
_chemical_formula_sum   'Ce3 Th4 O14'
_cell_volume   300.48734807
_cell_formula_units_Z   1
loop_
 _symmetry_equiv_pos_site_id
 _symmetry_equiv_pos_as_xyz
  1  'x, y, z'
loop_
 _atom_site_type_symbol
 _atom_site_label
 _atom_site_symmetry_multiplicity
 _atom_site_fract_x
 _atom_site_fract_y
 _atom_site_fract_z
 _atom_site_occupancy
  Ce  Ce0  1  0.429107  0.570893  0.285235  1
  Ce  Ce1  1  0.000000  0.000000  0.000000  1
  Ce  Ce2  1  0.570893  0.429107  0.714765  1
  Th  Th3  1  0.141911  0.858089  0.428089  1
  Th  Th4  1  0.713951  0.286049  0.141815  1
  Th  Th5  1  0.286049  0.713951  0.858185  1
  Th  Th6  1  0.858089  0.141911  0.571911  1
  O  O7  1  0.039431  0.465418  0.356116  1
  O  O8  1  0.534582  0.960569  0.356116  1
  O  O9  1  0.108693  0.390665  0.072344  1
  O  O10  1  0.609335  0.891307  0.072344  1
  O  O11  1  0.819539  0.680773  0.212901  1
  O  O12  1  0.319227  0.180461  0.212901  1
  O  O13  1  0.390665  0.108693  0.927656  1
  O  O14  1  0.680773  0.819539  0.787099  1
  O  O15  1  0.465418  0.039431  0.643884  1
  O  O16  1  0.960569  0.534582  0.643884  1
  O  O17  1  0.180461  0.319227  0.787099  1
  O  O18  1  0.891307  0.609335  0.927656  1
  O  O19  1  0.744900  0.744900  0.500000  1
  O  O20  1  0.255100  0.255100  0.500000  1
