# generated using pymatgen
data_Cr3WO8
_symmetry_space_group_name_H-M   'P 1'
_cell_length_a   5.99008640
_cell_length_b   5.99008640
_cell_length_c   9.18750275
_cell_angle_alpha   90.00000000
_cell_angle_beta   90.00000000
_cell_angle_gamma   120.00000000
_symmetry_Int_Tables_number   1
_chemical_formula_structural   Cr3WO8
_chemical_formula_sum   'Cr6 W2 O16'
_cell_volume   285.49222608
_cell_formula_units_Z   2
loop_
 _symmetry_equiv_pos_site_id
 _symmetry_equiv_pos_as_xyz
  1  'x, y, z'
loop_
 _atom_site_type_symbol
 _atom_site_label
 _atom_site_symmetry_multiplicity
 _atom_site_fract_x
 _atom_site_fract_y
 _atom_site_fract_z
 _atom_site_occupancy
  Cr  Cr0  1  0.170412  0.829588  0.214066  1
  Cr  Cr1  1  0.170412  0.340823  0.214066  1
  Cr  Cr2  1  0.659177  0.829588  0.214066  1
  Cr  Cr3  1  0.340823  0.170412  0.714066  1
  Cr  Cr4  1  0.829588  0.659177  0.714066  1
  Cr  Cr5  1  0.829588  0.170412  0.714066  1
  W  W6  1  0.333333  0.666667  0.493702  1
  W  W7  1  0.666667  0.333333  0.993702  1
  O  O8  1  0.174576  0.825424  0.596388  1
  O  O9  1  0.048239  0.524119  0.342867  1
  O  O10  1  0.333333  0.666667  0.108645  1
  O  O11  1  0.000000  0.000000  0.295556  1
  O  O12  1  0.000000  0.000000  0.795556  1
  O  O13  1  0.174576  0.349151  0.596388  1
  O  O14  1  0.475881  0.951761  0.342867  1
  O  O15  1  0.475881  0.524119  0.342867  1
  O  O16  1  0.349151  0.174576  0.096388  1
  O  O17  1  0.650849  0.825424  0.596388  1
  O  O18  1  0.524119  0.475881  0.842867  1
  O  O19  1  0.524119  0.048239  0.842867  1
  O  O20  1  0.666667  0.333333  0.608645  1
  O  O21  1  0.825424  0.650849  0.096388  1
  O  O22  1  0.951761  0.475881  0.842867  1
  O  O23  1  0.825424  0.174576  0.096388  1
