# generated using pymatgen
data_Li4FeSb(WO6)2
_symmetry_space_group_name_H-M   'P 1'
_cell_length_a   5.17041772
_cell_length_b   5.44864713
_cell_length_c   7.52353698
_cell_angle_alpha   85.91604143
_cell_angle_beta   89.96063929
_cell_angle_gamma   89.89676990
_symmetry_Int_Tables_number   1
_chemical_formula_structural   Li4FeSb(WO6)2
_chemical_formula_sum   'Li4 Fe1 Sb1 W2 O12'
_cell_volume   211.41286969
_cell_formula_units_Z   1
loop_
 _symmetry_equiv_pos_site_id
 _symmetry_equiv_pos_as_xyz
  1  'x, y, z'
loop_
 _atom_site_type_symbol
 _atom_site_label
 _atom_site_symmetry_multiplicity
 _atom_site_fract_x
 _atom_site_fract_y
 _atom_site_fract_z
 _atom_site_occupancy
  Li  Li0  1  0.002771  0.561654  0.305121  1
  Li  Li1  1  0.496992  0.082566  0.767054  1
  Li  Li2  1  0.996081  0.518173  0.744637  1
  Li  Li3  1  0.503749  0.075906  0.301509  1
  Fe  Fe4  1  0.499430  0.510581  0.502047  1
  Sb  Sb5  1  0.001443  0.001414  0.003034  1
  W  W6  1  0.998086  0.001175  0.502172  1
  W  W7  1  0.502896  0.504726  0.000819  1
  O  O8  1  0.705241  0.806593  0.434240  1
  O  O9  1  0.874432  0.987249  0.751218  1
  O  O10  1  0.679821  0.182375  0.061166  1
  O  O11  1  0.804199  0.291993  0.437682  1
  O  O12  1  0.195881  0.306123  0.926143  1
  O  O13  1  0.617414  0.479835  0.758895  1
  O  O14  1  0.378324  0.488871  0.236364  1
  O  O15  1  0.816326  0.678295  0.060700  1
  O  O16  1  0.179345  0.689402  0.548651  1
  O  O17  1  0.315021  0.806009  0.930033  1
  O  O18  1  0.130480  0.988647  0.249652  1
  O  O19  1  0.302067  0.180815  0.550064  1
