# generated using pymatgen
data_MnV4O12
_symmetry_space_group_name_H-M   'P 1'
_cell_length_a   4.93613877
_cell_length_b   5.34154367
_cell_length_c   7.41044218
_cell_angle_alpha   83.59634464
_cell_angle_beta   89.25786919
_cell_angle_gamma   89.13693650
_symmetry_Int_Tables_number   1
_chemical_formula_structural   MnV4O12
_chemical_formula_sum   'Mn1 V4 O12'
_cell_volume   194.13458445
_cell_formula_units_Z   1
loop_
 _symmetry_equiv_pos_site_id
 _symmetry_equiv_pos_as_xyz
  1  'x, y, z'
loop_
 _atom_site_type_symbol
 _atom_site_label
 _atom_site_symmetry_multiplicity
 _atom_site_fract_x
 _atom_site_fract_y
 _atom_site_fract_z
 _atom_site_occupancy
  Mn  Mn0  1  0.998718  0.395300  0.706908  1
  V  V1  1  0.979687  0.984754  0.015198  1
  V  V2  1  0.512925  0.524292  0.481660  1
  V  V3  1  0.011681  0.993735  0.488776  1
  V  V4  1  0.475878  0.496804  0.995145  1
  O  O5  1  0.714885  0.247466  0.584459  1
  O  O6  1  0.891763  0.038045  0.273566  1
  O  O7  1  0.694604  0.840794  0.969931  1
  O  O8  1  0.824679  0.708851  0.585418  1
  O  O9  1  0.198226  0.736325  0.066041  1
  O  O10  1  0.606155  0.524767  0.267585  1
  O  O11  1  0.336635  0.534524  0.771649  1
  O  O12  1  0.813444  0.360376  0.935788  1
  O  O13  1  0.193486  0.348719  0.482806  1
  O  O14  1  0.319435  0.237645  0.079901  1
  O  O15  1  0.109657  0.063891  0.772884  1
  O  O16  1  0.318142  0.845114  0.462988  1
