# generated using pymatgen
data_Li3VB4O9
_symmetry_space_group_name_H-M   'P 1'
_cell_length_a   5.78345184
_cell_length_b   8.76149856
_cell_length_c   6.74984756
_cell_angle_alpha   90.00000000
_cell_angle_beta   102.41095301
_cell_angle_gamma   90.00000000
_symmetry_Int_Tables_number   1
_chemical_formula_structural   Li3VB4O9
_chemical_formula_sum   'Li6 V2 B8 O18'
_cell_volume   334.03354415
_cell_formula_units_Z   2
loop_
 _symmetry_equiv_pos_site_id
 _symmetry_equiv_pos_as_xyz
  1  'x, y, z'
loop_
 _atom_site_type_symbol
 _atom_site_label
 _atom_site_symmetry_multiplicity
 _atom_site_fract_x
 _atom_site_fract_y
 _atom_site_fract_z
 _atom_site_occupancy
  Li  Li0  1  0.236335  0.434180  0.164527  1
  Li  Li1  1  0.236335  0.065820  0.164527  1
  Li  Li2  1  0.418221  0.750000  0.475853  1
  Li  Li3  1  0.581779  0.250000  0.524147  1
  Li  Li4  1  0.763665  0.934180  0.835473  1
  Li  Li5  1  0.763665  0.565820  0.835473  1
  V  V6  1  0.255857  0.750000  0.884699  1
  V  V7  1  0.744143  0.250000  0.115301  1
  B  B8  1  0.019057  0.750000  0.232419  1
  B  B9  1  0.132794  0.250000  0.462762  1
  B  B10  1  0.275316  0.452258  0.720231  1
  B  B11  1  0.275316  0.047742  0.720231  1
  B  B12  1  0.724684  0.952258  0.279769  1
  B  B13  1  0.724684  0.547742  0.279769  1
  B  B14  1  0.867206  0.750000  0.537238  1
  B  B15  1  0.980943  0.250000  0.767581  1
  O  O16  1  0.129847  0.392385  0.842708  1
  O  O17  1  0.129847  0.107615  0.842708  1
  O  O18  1  0.076253  0.750000  0.452953  1
  O  O19  1  0.079771  0.250000  0.243276  1
  O  O20  1  0.287805  0.386671  0.537058  1
  O  O21  1  0.287805  0.113329  0.537058  1
  O  O22  1  0.238210  0.750000  0.162499  1
  O  O23  1  0.411766  0.921215  0.786525  1
  O  O24  1  0.411766  0.578785  0.786525  1
  O  O25  1  0.588234  0.078785  0.213475  1
  O  O26  1  0.588234  0.421215  0.213475  1
  O  O27  1  0.761790  0.250000  0.837501  1
  O  O28  1  0.712195  0.886671  0.462942  1
  O  O29  1  0.712195  0.613329  0.462942  1
  O  O30  1  0.920229  0.750000  0.756724  1
  O  O31  1  0.923747  0.250000  0.547047  1
  O  O32  1  0.870153  0.892385  0.157292  1
  O  O33  1  0.870153  0.607615  0.157292  1
