# generated using pymatgen
data_Dy2CuO4
_symmetry_space_group_name_H-M   'P 1'
_cell_length_a   6.53614343
_cell_length_b   6.53614343
_cell_length_c   5.49076851
_cell_angle_alpha   90.00000000
_cell_angle_beta   90.00000000
_cell_angle_gamma   130.29336294
_symmetry_Int_Tables_number   1
_chemical_formula_structural   Dy2CuO4
_chemical_formula_sum   'Dy4 Cu2 O8'
_cell_volume   178.91825523
_cell_formula_units_Z   2
loop_
 _symmetry_equiv_pos_site_id
 _symmetry_equiv_pos_as_xyz
  1  'x, y, z'
loop_
 _atom_site_type_symbol
 _atom_site_label
 _atom_site_symmetry_multiplicity
 _atom_site_fract_x
 _atom_site_fract_y
 _atom_site_fract_z
 _atom_site_occupancy
  Dy  Dy0  1  0.653580  0.346420  0.000000  1
  Dy  Dy1  1  0.346420  0.653580  0.000000  1
  Dy  Dy2  1  0.846420  0.153580  0.500000  1
  Dy  Dy3  1  0.153580  0.846420  0.500000  1
  Cu  Cu4  1  0.000000  0.000000  0.000000  1
  Cu  Cu5  1  0.500000  0.500000  0.500000  1
  O  O6  1  0.706606  0.706606  0.207271  1
  O  O7  1  0.509164  0.009164  0.250000  1
  O  O8  1  0.009164  0.509164  0.250000  1
  O  O9  1  0.206606  0.206606  0.292729  1
  O  O10  1  0.793394  0.793394  0.707271  1
  O  O11  1  0.990836  0.490836  0.750000  1
  O  O12  1  0.490836  0.990836  0.750000  1
  O  O13  1  0.293394  0.293394  0.792729  1
