# generated using pymatgen
data_Cu(PO3)3
_symmetry_space_group_name_H-M   'P 1'
_cell_length_a   8.38285872
_cell_length_b   8.49969020
_cell_length_c   8.58270800
_cell_angle_alpha   90.00000000
_cell_angle_beta   90.00000000
_cell_angle_gamma   90.00000000
_symmetry_Int_Tables_number   1
_chemical_formula_structural   Cu(PO3)3
_chemical_formula_sum   'Cu4 P12 O36'
_cell_volume   611.53255372
_cell_formula_units_Z   4
loop_
 _symmetry_equiv_pos_site_id
 _symmetry_equiv_pos_as_xyz
  1  'x, y, z'
loop_
 _atom_site_type_symbol
 _atom_site_label
 _atom_site_symmetry_multiplicity
 _atom_site_fract_x
 _atom_site_fract_y
 _atom_site_fract_z
 _atom_site_occupancy
  Cu  Cu0  1  0.131352  0.354888  0.150382  1
  Cu  Cu1  1  0.368648  0.645112  0.650382  1
  Cu  Cu2  1  0.631352  0.145112  0.849618  1
  Cu  Cu3  1  0.868648  0.854888  0.349618  1
  P  P4  1  0.035079  0.821771  0.685287  1
  P  P5  1  0.176147  0.984661  0.191525  1
  P  P6  1  0.208829  0.312085  0.554944  1
  P  P7  1  0.291171  0.687915  0.054944  1
  P  P8  1  0.323853  0.015339  0.691525  1
  P  P9  1  0.464921  0.178229  0.185287  1
  P  P10  1  0.535079  0.678229  0.314713  1
  P  P11  1  0.676147  0.515339  0.808475  1
  P  P12  1  0.708829  0.187915  0.445056  1
  P  P13  1  0.791171  0.812085  0.945056  1
  P  P14  1  0.823853  0.484661  0.308475  1
  P  P15  1  0.964921  0.321771  0.814713  1
  O  O16  1  0.046907  0.278693  0.652828  1
  O  O17  1  0.088818  0.123956  0.124592  1
  O  O18  1  0.097834  0.376581  0.921270  1
  O  O19  1  0.103894  0.897783  0.328046  1
  O  O20  1  0.136479  0.686032  0.629541  1
  O  O21  1  0.145637  0.965758  0.741850  1
  O  O22  1  0.159506  0.352166  0.392641  1
  O  O23  1  0.179843  0.584231  0.148130  1
  O  O24  1  0.213187  0.861916  0.053292  1
  O  O25  1  0.286813  0.138084  0.553292  1
  O  O26  1  0.320157  0.415769  0.648130  1
  O  O27  1  0.340494  0.647834  0.892641  1
  O  O28  1  0.354363  0.034242  0.241850  1
  O  O29  1  0.363521  0.313968  0.129541  1
  O  O30  1  0.396106  0.102217  0.828046  1
  O  O31  1  0.402166  0.623419  0.421270  1
  O  O32  1  0.411182  0.876044  0.624592  1
  O  O33  1  0.453093  0.721307  0.152828  1
  O  O34  1  0.546907  0.221307  0.347172  1
  O  O35  1  0.588818  0.376044  0.875408  1
  O  O36  1  0.597834  0.123419  0.078730  1
  O  O37  1  0.603894  0.602217  0.671954  1
  O  O38  1  0.636479  0.813968  0.370459  1
  O  O39  1  0.645637  0.534242  0.258150  1
  O  O40  1  0.659506  0.147834  0.607359  1
  O  O41  1  0.679843  0.915769  0.851870  1
  O  O42  1  0.713187  0.638084  0.946708  1
  O  O43  1  0.786813  0.361916  0.446708  1
  O  O44  1  0.820157  0.084231  0.351870  1
  O  O45  1  0.840494  0.852166  0.107359  1
  O  O46  1  0.854363  0.465758  0.758150  1
  O  O47  1  0.863521  0.186032  0.870459  1
  O  O48  1  0.896106  0.397783  0.171954  1
  O  O49  1  0.902166  0.876581  0.578730  1
  O  O50  1  0.911182  0.623956  0.375408  1
  O  O51  1  0.953093  0.778693  0.847172  1
