# generated using pymatgen
data_Cr4OF11
_symmetry_space_group_name_H-M   'P 1'
_cell_length_a   5.07584883
_cell_length_b   5.32478101
_cell_length_c   16.87531621
_cell_angle_alpha   88.24142921
_cell_angle_beta   98.33277139
_cell_angle_gamma   118.22416224
_symmetry_Int_Tables_number   1
_chemical_formula_structural   Cr4OF11
_chemical_formula_sum   'Cr8 O2 F22'
_cell_volume   397.25621955
_cell_formula_units_Z   2
loop_
 _symmetry_equiv_pos_site_id
 _symmetry_equiv_pos_as_xyz
  1  'x, y, z'
loop_
 _atom_site_type_symbol
 _atom_site_label
 _atom_site_symmetry_multiplicity
 _atom_site_fract_x
 _atom_site_fract_y
 _atom_site_fract_z
 _atom_site_occupancy
  Cr  Cr0  1  0.740499  0.356620  0.128831  1
  Cr  Cr1  1  0.741644  0.886942  0.627949  1
  Cr  Cr2  1  0.506545  0.239445  0.745753  1
  Cr  Cr3  1  0.505117  0.768534  0.246371  1
  Cr  Cr4  1  0.253238  0.131147  0.374410  1
  Cr  Cr5  1  0.251807  0.619463  0.874759  1
  Cr  Cr6  1  0.999674  0.504587  0.500914  1
  Cr  Cr7  1  0.999565  0.993551  0.000662  1
  O  O8  1  0.501806  0.063102  0.187751  1
  O  O9  1  0.563597  0.093979  0.656500  1
  F  F10  1  0.436456  0.214906  0.033260  1
  F  F11  1  0.995182  0.187690  0.563209  1
  F  F12  1  0.987983  0.679342  0.064195  1
  F  F13  1  0.066741  0.031834  0.718512  1
  F  F14  1  0.063462  0.345507  0.407366  1
  F  F15  1  0.066652  0.533057  0.217591  1
  F  F16  1  0.435393  0.402621  0.839774  1
  F  F17  1  0.438483  0.908953  0.342457  1
  F  F18  1  0.435343  0.717990  0.533689  1
  F  F19  1  0.939538  0.155896  0.094168  1
  F  F20  1  0.503635  0.562164  0.688073  1
  F  F21  1  0.492947  0.443867  0.310343  1
  F  F22  1  0.065581  0.840302  0.906862  1
  F  F23  1  0.565461  0.593197  0.156723  1
  F  F24  1  0.564893  0.283511  0.467828  1
  F  F25  1  0.936130  0.467698  0.781551  1
  F  F26  1  0.930278  0.663038  0.593326  1
  F  F27  1  0.937755  0.968338  0.281377  1
  F  F28  1  0.003626  0.309534  0.938105  1
  F  F29  1  0.004967  0.816401  0.437259  1
  F  F30  1  0.502174  0.936230  0.812517  1
  F  F31  1  0.563827  0.780552  0.967915  1
