# generated using pymatgen
data_LiMnP2O7
_symmetry_space_group_name_H-M   'P 1'
_cell_length_a   4.95672208
_cell_length_b   6.60390745
_cell_length_c   16.60135878
_cell_angle_alpha   90.00000000
_cell_angle_beta   91.60493504
_cell_angle_gamma   90.00000000
_symmetry_Int_Tables_number   1
_chemical_formula_structural   LiMnP2O7
_chemical_formula_sum   'Li4 Mn4 P8 O28'
_cell_volume   543.21127877
_cell_formula_units_Z   4
loop_
 _symmetry_equiv_pos_site_id
 _symmetry_equiv_pos_as_xyz
  1  'x, y, z'
loop_
 _atom_site_type_symbol
 _atom_site_label
 _atom_site_symmetry_multiplicity
 _atom_site_fract_x
 _atom_site_fract_y
 _atom_site_fract_z
 _atom_site_occupancy
  Li  Li0  1  0.756286  0.978779  0.259580  1
  Li  Li1  1  0.756286  0.521221  0.759580  1
  Li  Li2  1  0.243714  0.478779  0.240420  1
  Li  Li3  1  0.243714  0.021221  0.740420  1
  Mn  Mn4  1  0.750832  0.581759  0.126232  1
  Mn  Mn5  1  0.750832  0.918241  0.626232  1
  Mn  Mn6  1  0.249168  0.081759  0.373768  1
  Mn  Mn7  1  0.249168  0.418241  0.873768  1
  P  P8  1  0.759860  0.796656  0.426473  1
  P  P9  1  0.759860  0.703344  0.926473  1
  P  P10  1  0.750086  0.403191  0.336994  1
  P  P11  1  0.750086  0.096809  0.836994  1
  P  P12  1  0.249914  0.903191  0.163006  1
  P  P13  1  0.249914  0.596809  0.663006  1
  P  P14  1  0.240140  0.296656  0.073527  1
  P  P15  1  0.240140  0.203344  0.573527  1
  O  O16  1  0.537688  0.340555  0.094860  1
  O  O17  1  0.537688  0.159445  0.594860  1
  O  O18  1  0.571656  0.239395  0.371624  1
  O  O19  1  0.571656  0.260605  0.871624  1
  O  O20  1  0.627867  0.512142  0.263888  1
  O  O21  1  0.627867  0.987858  0.763888  1
  O  O22  1  0.805224  0.558386  0.409253  1
  O  O23  1  0.805224  0.941614  0.909253  1
  O  O24  1  0.850500  0.677485  0.012309  1
  O  O25  1  0.850500  0.822515  0.512309  1
  O  O26  1  0.935981  0.907112  0.363198  1
  O  O27  1  0.935981  0.592888  0.863198  1
  O  O28  1  0.971164  0.809325  0.183048  1
  O  O29  1  0.971164  0.690675  0.683048  1
  O  O30  1  0.028836  0.309325  0.316952  1
  O  O31  1  0.028836  0.190675  0.816952  1
  O  O32  1  0.064019  0.407112  0.136802  1
  O  O33  1  0.064019  0.092888  0.636802  1
  O  O34  1  0.149500  0.177485  0.487691  1
  O  O35  1  0.149500  0.322515  0.987691  1
  O  O36  1  0.194776  0.058386  0.090747  1
  O  O37  1  0.194776  0.441614  0.590747  1
  O  O38  1  0.372133  0.012142  0.236112  1
  O  O39  1  0.372133  0.487858  0.736112  1
  O  O40  1  0.428344  0.739395  0.128376  1
  O  O41  1  0.428344  0.760605  0.628376  1
  O  O42  1  0.462312  0.840555  0.405140  1
  O  O43  1  0.462312  0.659445  0.905140  1
