# generated using pymatgen
data_LiV2P4(HO8)2
_symmetry_space_group_name_H-M   'P 1'
_cell_length_a   7.77858693
_cell_length_b   9.28229811
_cell_length_c   9.28830758
_cell_angle_alpha   116.36518751
_cell_angle_beta   102.10492056
_cell_angle_gamma   101.93347364
_symmetry_Int_Tables_number   1
_chemical_formula_structural   LiV2P4(HO8)2
_chemical_formula_sum   'Li2 V4 P8 H4 O32'
_cell_volume   552.02658025
_cell_formula_units_Z   2
loop_
 _symmetry_equiv_pos_site_id
 _symmetry_equiv_pos_as_xyz
  1  'x, y, z'
loop_
 _atom_site_type_symbol
 _atom_site_label
 _atom_site_symmetry_multiplicity
 _atom_site_fract_x
 _atom_site_fract_y
 _atom_site_fract_z
 _atom_site_occupancy
  Li  Li0  1  0.643850  0.630275  0.459246  1
  Li  Li1  1  0.856067  0.128078  0.658321  1
  V  V2  1  0.495774  0.010884  0.240263  1
  V  V3  1  0.012515  0.506696  0.499985  1
  V  V4  1  0.998065  0.497374  0.997653  1
  V  V5  1  0.495516  0.996284  0.753516  1
  P  P6  1  0.732004  0.353299  0.253098  1
  P  P7  1  0.735039  0.350124  0.752017  1
  P  P8  1  0.767444  0.848696  0.644261  1
  P  P9  1  0.765407  0.853074  0.146409  1
  P  P10  1  0.231934  0.149340  0.354490  1
  P  P11  1  0.233942  0.153247  0.850775  1
  P  P12  1  0.268412  0.648726  0.750080  1
  P  P13  1  0.264104  0.655596  0.238336  1
  H  H14  1  0.487205  0.508342  0.759397  1
  H  H15  1  0.507731  0.494461  0.242309  1
  H  H16  1  0.012637  0.007210  0.484248  1
  H  H17  1  0.984010  0.992389  0.017274  1
  O  O18  1  0.947943  0.948510  0.123932  1
  O  O19  1  0.655440  0.952233  0.176603  1
  O  O20  1  0.366757  0.166520  0.014039  1
  O  O21  1  0.323405  0.834909  0.219680  1
  O  O22  1  0.848120  0.445326  0.625944  1
  O  O23  1  0.839820  0.441815  0.126006  1
  O  O24  1  0.670036  0.173493  0.271828  1
  O  O25  1  0.635288  0.829241  0.485986  1
  O  O26  1  0.565842  0.458611  0.677047  1
  O  O27  1  0.553153  0.452612  0.179597  1
  O  O28  1  0.340852  0.059651  0.314907  1
  O  O29  1  0.171672  0.328096  0.194294  1
  O  O30  1  0.189992  0.332649  0.697299  1
  O  O31  1  0.936271  0.958248  0.613491  1
  O  O32  1  0.869692  0.337013  0.928007  1
  O  O33  1  0.862279  0.329154  0.430574  1
  O  O34  1  0.136923  0.668078  0.575170  1
  O  O35  1  0.127679  0.666053  0.067904  1
  O  O36  1  0.053523  0.047690  0.378547  1
  O  O37  1  0.826862  0.668171  0.803147  1
  O  O38  1  0.812181  0.679596  0.310769  1
  O  O39  1  0.656769  0.939000  0.680923  1
  O  O40  1  0.447202  0.546760  0.825419  1
  O  O41  1  0.440992  0.555953  0.314385  1
  O  O42  1  0.365027  0.165679  0.509764  1
  O  O43  1  0.318787  0.825481  0.728257  1
  O  O44  1  0.157981  0.554145  0.877826  1
  O  O45  1  0.151160  0.568336  0.363754  1
  O  O46  1  0.691364  0.173062  0.770852  1
  O  O47  1  0.635857  0.833797  0.991547  1
  O  O48  1  0.352024  0.061112  0.823129  1
  O  O49  1  0.057452  0.056943  0.876676  1
