# generated using pymatgen
data_Li4Mn3Cr2Sb3O16
_symmetry_space_group_name_H-M   'P 1'
_cell_length_a   6.24800304
_cell_length_b   6.24800304
_cell_length_c   9.74434767
_cell_angle_alpha   87.38431136
_cell_angle_beta   92.61568864
_cell_angle_gamma   121.28106807
_symmetry_Int_Tables_number   1
_chemical_formula_structural   Li4Mn3Cr2Sb3O16
_chemical_formula_sum   'Li4 Mn3 Cr2 Sb3 O16'
_cell_volume   324.65149798
_cell_formula_units_Z   1
loop_
 _symmetry_equiv_pos_site_id
 _symmetry_equiv_pos_as_xyz
  1  'x, y, z'
loop_
 _atom_site_type_symbol
 _atom_site_label
 _atom_site_symmetry_multiplicity
 _atom_site_fract_x
 _atom_site_fract_y
 _atom_site_fract_z
 _atom_site_occupancy
  Li  Li0  1  0.660378  0.339622  0.882927  1
  Li  Li1  1  0.987261  0.012739  0.983719  1
  Li  Li2  1  0.994406  0.005594  0.504065  1
  Li  Li3  1  0.322331  0.677669  0.403260  1
  Mn  Mn4  1  0.831833  0.168167  0.212682  1
  Mn  Mn5  1  0.173482  0.338666  0.709920  1
  Mn  Mn6  1  0.661334  0.826518  0.709920  1
  Cr  Cr7  1  0.676587  0.323413  0.494464  1
  Cr  Cr8  1  0.346961  0.653039  0.975348  1
  Sb  Sb9  1  0.337096  0.168648  0.215009  1
  Sb  Sb10  1  0.831352  0.662904  0.215009  1
  Sb  Sb11  1  0.172273  0.827727  0.715430  1
  O  O12  1  0.338503  0.148607  0.598122  1
  O  O13  1  0.517536  0.482464  0.336422  1
  O  O14  1  0.654344  0.345656  0.101170  1
  O  O15  1  0.009995  0.990005  0.317408  1
  O  O16  1  0.008068  0.991932  0.801549  1
  O  O17  1  0.851393  0.661497  0.598122  1
  O  O18  1  0.503940  0.041798  0.343142  1
  O  O19  1  0.958202  0.496060  0.343142  1
  O  O20  1  0.155880  0.844120  0.106255  1
  O  O21  1  0.838369  0.161631  0.595525  1
  O  O22  1  0.039629  0.531486  0.851119  1
  O  O23  1  0.468514  0.960371  0.851119  1
  O  O24  1  0.325119  0.674881  0.604887  1
  O  O25  1  0.178356  0.319084  0.096818  1
  O  O26  1  0.476441  0.523559  0.844477  1
  O  O27  1  0.680916  0.821644  0.096818  1
