# generated using pymatgen
data_Na2Cr4O13
_symmetry_space_group_name_H-M   'P 1'
_cell_length_a   9.17067573
_cell_length_b   7.24524747
_cell_length_c   17.45733782
_cell_angle_alpha   90.00000000
_cell_angle_beta   92.26523535
_cell_angle_gamma   90.00000000
_symmetry_Int_Tables_number   1
_chemical_formula_structural   Na2Cr4O13
_chemical_formula_sum   'Na8 Cr16 O52'
_cell_volume   1159.02571125
_cell_formula_units_Z   4
loop_
 _symmetry_equiv_pos_site_id
 _symmetry_equiv_pos_as_xyz
  1  'x, y, z'
loop_
 _atom_site_type_symbol
 _atom_site_label
 _atom_site_symmetry_multiplicity
 _atom_site_fract_x
 _atom_site_fract_y
 _atom_site_fract_z
 _atom_site_occupancy
  Na  Na0  1  0.178095  0.326015  0.445103  1
  Na  Na1  1  0.678095  0.173985  0.445103  1
  Na  Na2  1  0.317713  0.854867  0.066892  1
  Na  Na3  1  0.817713  0.645133  0.066892  1
  Na  Na4  1  0.182287  0.354867  0.933108  1
  Na  Na5  1  0.682287  0.145133  0.933108  1
  Na  Na6  1  0.321905  0.826015  0.554897  1
  Na  Na7  1  0.821905  0.673985  0.554897  1
  Cr  Cr8  1  0.055229  0.827106  0.415851  1
  Cr  Cr9  1  0.555229  0.672894  0.415851  1
  Cr  Cr10  1  0.176378  0.646421  0.248740  1
  Cr  Cr11  1  0.413430  0.306550  0.256244  1
  Cr  Cr12  1  0.676378  0.853579  0.248740  1
  Cr  Cr13  1  0.913430  0.193450  0.256244  1
  Cr  Cr14  1  0.460478  0.323726  0.081347  1
  Cr  Cr15  1  0.960478  0.176274  0.081347  1
  Cr  Cr16  1  0.039522  0.823726  0.918653  1
  Cr  Cr17  1  0.539522  0.676274  0.918653  1
  Cr  Cr18  1  0.086570  0.806550  0.743756  1
  Cr  Cr19  1  0.323622  0.146421  0.751260  1
  Cr  Cr20  1  0.586570  0.693450  0.743756  1
  Cr  Cr21  1  0.823622  0.353579  0.751260  1
  Cr  Cr22  1  0.444771  0.327106  0.584149  1
  Cr  Cr23  1  0.944771  0.172894  0.584149  1
  O  O24  1  0.070232  0.686778  0.489525  1
  O  O25  1  0.570232  0.813222  0.489525  1
  O  O26  1  0.178800  0.987745  0.425837  1
  O  O27  1  0.678800  0.512255  0.425837  1
  O  O28  1  0.392496  0.583339  0.412008  1
  O  O29  1  0.892496  0.916661  0.412008  1
  O  O30  1  0.080569  0.692392  0.329914  1
  O  O31  1  0.580569  0.807608  0.329914  1
  O  O32  1  0.435141  0.166339  0.326919  1
  O  O33  1  0.935141  0.333661  0.326919  1
  O  O34  1  0.041549  0.044950  0.258384  1
  O  O35  1  0.242712  0.417698  0.262838  1
  O  O36  1  0.541549  0.455050  0.258384  1
  O  O37  1  0.742712  0.082302  0.262838  1
  O  O38  1  0.308506  0.785966  0.238305  1
  O  O39  1  0.808506  0.714034  0.238305  1
  O  O40  1  0.075475  0.650915  0.171550  1
  O  O41  1  0.575475  0.849085  0.171550  1
  O  O42  1  0.415309  0.193998  0.168237  1
  O  O43  1  0.915309  0.306002  0.168237  1
  O  O44  1  0.133064  0.127116  0.085338  1
  O  O45  1  0.633064  0.372884  0.085338  1
  O  O46  1  0.364192  0.512322  0.075751  1
  O  O47  1  0.864192  0.987678  0.075751  1
  O  O48  1  0.422265  0.189452  0.007689  1
  O  O49  1  0.922265  0.310548  0.007689  1
  O  O50  1  0.077735  0.689452  0.992311  1
  O  O51  1  0.577735  0.810548  0.992311  1
  O  O52  1  0.135808  0.012322  0.924249  1
  O  O53  1  0.635808  0.487678  0.924249  1
  O  O54  1  0.366936  0.627116  0.914662  1
  O  O55  1  0.866936  0.872884  0.914662  1
  O  O56  1  0.084691  0.693998  0.831763  1
  O  O57  1  0.584691  0.806002  0.831763  1
  O  O58  1  0.424525  0.150915  0.828450  1
  O  O59  1  0.924525  0.349085  0.828450  1
  O  O60  1  0.191494  0.285966  0.761695  1
  O  O61  1  0.691494  0.214034  0.761695  1
  O  O62  1  0.257288  0.917698  0.737162  1
  O  O63  1  0.458451  0.544950  0.741616  1
  O  O64  1  0.757288  0.582302  0.737162  1
  O  O65  1  0.958451  0.955050  0.741616  1
  O  O66  1  0.064859  0.666339  0.673081  1
  O  O67  1  0.564859  0.833661  0.673081  1
  O  O68  1  0.419431  0.192392  0.670086  1
  O  O69  1  0.919431  0.307608  0.670086  1
  O  O70  1  0.107504  0.083339  0.587992  1
  O  O71  1  0.607504  0.416661  0.587992  1
  O  O72  1  0.321200  0.487745  0.574163  1
  O  O73  1  0.821200  0.012255  0.574163  1
  O  O74  1  0.429768  0.186778  0.510475  1
  O  O75  1  0.929768  0.313222  0.510475  1
