# generated using pymatgen
data_Li2FeBO4
_symmetry_space_group_name_H-M   'P 1'
_cell_length_a   5.00108218
_cell_length_b   5.86078608
_cell_length_c   10.54072648
_cell_angle_alpha   90.00000000
_cell_angle_beta   90.00000000
_cell_angle_gamma   90.00000000
_symmetry_Int_Tables_number   1
_chemical_formula_structural   Li2FeBO4
_chemical_formula_sum   'Li8 Fe4 B4 O16'
_cell_volume   308.95156891
_cell_formula_units_Z   4
loop_
 _symmetry_equiv_pos_site_id
 _symmetry_equiv_pos_as_xyz
  1  'x, y, z'
loop_
 _atom_site_type_symbol
 _atom_site_label
 _atom_site_symmetry_multiplicity
 _atom_site_fract_x
 _atom_site_fract_y
 _atom_site_fract_z
 _atom_site_occupancy
  Li  Li0  1  0.176148  0.004468  0.668502  1
  Li  Li1  1  0.323852  0.004468  0.168502  1
  Li  Li2  1  0.176148  0.495532  0.668502  1
  Li  Li3  1  0.323852  0.495532  0.168502  1
  Li  Li4  1  0.676148  0.504468  0.831498  1
  Li  Li5  1  0.823852  0.504468  0.331498  1
  Li  Li6  1  0.823852  0.995532  0.331498  1
  Li  Li7  1  0.676148  0.995532  0.831498  1
  Fe  Fe8  1  0.678669  0.250000  0.576322  1
  Fe  Fe9  1  0.821331  0.250000  0.076322  1
  Fe  Fe10  1  0.178669  0.750000  0.923678  1
  Fe  Fe11  1  0.321331  0.750000  0.423678  1
  B  B12  1  0.171352  0.250000  0.911391  1
  B  B13  1  0.328648  0.250000  0.411391  1
  B  B14  1  0.671352  0.750000  0.588609  1
  B  B15  1  0.828648  0.750000  0.088609  1
  O  O16  1  0.283998  0.039076  0.851519  1
  O  O17  1  0.216002  0.039076  0.351519  1
  O  O18  1  0.869282  0.250000  0.897016  1
  O  O19  1  0.289066  0.250000  0.554581  1
  O  O20  1  0.210934  0.250000  0.054581  1
  O  O21  1  0.630718  0.250000  0.397016  1
  O  O22  1  0.283998  0.460924  0.851519  1
  O  O23  1  0.216002  0.460924  0.351519  1
  O  O24  1  0.716002  0.539076  0.148481  1
  O  O25  1  0.783998  0.539076  0.648481  1
  O  O26  1  0.789066  0.750000  0.945419  1
  O  O27  1  0.369282  0.750000  0.602984  1
  O  O28  1  0.710934  0.750000  0.445419  1
  O  O29  1  0.130718  0.750000  0.102984  1
  O  O30  1  0.783998  0.960924  0.648481  1
  O  O31  1  0.716002  0.960924  0.148481  1
