# generated using pymatgen
data_KSbPCO7
_symmetry_space_group_name_H-M   'P 1'
_cell_length_a   5.79527085
_cell_length_b   6.65438195
_cell_length_c   10.14029833
_cell_angle_alpha   90.00000000
_cell_angle_beta   91.33245659
_cell_angle_gamma   90.00000000
_symmetry_Int_Tables_number   1
_chemical_formula_structural   KSbPCO7
_chemical_formula_sum   'K2 Sb2 P2 C2 O14'
_cell_volume   390.94417324
_cell_formula_units_Z   2
loop_
 _symmetry_equiv_pos_site_id
 _symmetry_equiv_pos_as_xyz
  1  'x, y, z'
loop_
 _atom_site_type_symbol
 _atom_site_label
 _atom_site_symmetry_multiplicity
 _atom_site_fract_x
 _atom_site_fract_y
 _atom_site_fract_z
 _atom_site_occupancy
  K  K0  1  0.235962  0.435098  0.710756  1
  K  K1  1  0.764038  0.935098  0.289244  1
  Sb  Sb2  1  0.784549  0.774367  0.860868  1
  Sb  Sb3  1  0.215451  0.274367  0.139132  1
  P  P4  1  0.725328  0.269013  0.941622  1
  P  P5  1  0.274672  0.769013  0.058378  1
  C  C6  1  0.717533  0.734171  0.611642  1
  C  C7  1  0.282467  0.234171  0.388358  1
  O  O8  1  0.308187  0.208457  0.507862  1
  O  O9  1  0.925227  0.751518  0.674457  1
  O  O10  1  0.544340  0.746513  0.697910  1
  O  O11  1  0.798406  0.091289  0.850075  1
  O  O12  1  0.804643  0.454030  0.859383  1
  O  O13  1  0.147696  0.759826  0.921874  1
  O  O14  1  0.461877  0.273567  0.960049  1
  O  O15  1  0.538123  0.773567  0.039951  1
  O  O16  1  0.852304  0.259826  0.078126  1
  O  O17  1  0.195357  0.954030  0.140617  1
  O  O18  1  0.201594  0.591289  0.149925  1
  O  O19  1  0.455660  0.246513  0.302090  1
  O  O20  1  0.074773  0.251518  0.325543  1
  O  O21  1  0.691813  0.708457  0.492138  1
