# generated using pymatgen
data_Li2Co2OF6
_symmetry_space_group_name_H-M   'P 1'
_cell_length_a   5.33574028
_cell_length_b   6.68368919
_cell_length_c   8.37365336
_cell_angle_alpha   71.21634158
_cell_angle_beta   74.80933567
_cell_angle_gamma   82.71240988
_symmetry_Int_Tables_number   1
_chemical_formula_structural   Li2Co2OF6
_chemical_formula_sum   'Li4 Co4 O2 F12'
_cell_volume   272.54691260
_cell_formula_units_Z   2
loop_
 _symmetry_equiv_pos_site_id
 _symmetry_equiv_pos_as_xyz
  1  'x, y, z'
loop_
 _atom_site_type_symbol
 _atom_site_label
 _atom_site_symmetry_multiplicity
 _atom_site_fract_x
 _atom_site_fract_y
 _atom_site_fract_z
 _atom_site_occupancy
  Li  Li0  1  0.101102  0.429749  0.258497  1
  Li  Li1  1  0.566513  0.254017  0.346584  1
  Li  Li2  1  0.433487  0.745983  0.653416  1
  Li  Li3  1  0.898898  0.570251  0.741503  1
  Co  Co4  1  0.300463  0.001050  0.191033  1
  Co  Co5  1  0.780072  0.790871  0.294996  1
  Co  Co6  1  0.219928  0.209129  0.705004  1
  Co  Co7  1  0.699537  0.998950  0.808967  1
  O  O8  1  0.444856  0.880371  0.370580  1
  O  O9  1  0.555144  0.119629  0.629420  1
  F  F10  1  0.388910  0.286073  0.154437  1
  F  F11  1  0.925100  0.078324  0.261971  1
  F  F12  1  0.695744  0.918689  0.064125  1
  F  F13  1  0.138749  0.731623  0.205222  1
  F  F14  1  0.735432  0.509622  0.291510  1
  F  F15  1  0.193028  0.295053  0.475133  1
  F  F16  1  0.806972  0.704947  0.524867  1
  F  F17  1  0.264568  0.490378  0.708490  1
  F  F18  1  0.861251  0.268377  0.794778  1
  F  F19  1  0.304256  0.081311  0.935875  1
  F  F20  1  0.074900  0.921676  0.738029  1
  F  F21  1  0.611090  0.713927  0.845563  1
