# generated using pymatgen
data_LiTi2(PO4)3
_symmetry_space_group_name_H-M   'P 1'
_cell_length_a   8.33095280
_cell_length_b   8.38168202
_cell_length_c   8.99955834
_cell_angle_alpha   90.22713780
_cell_angle_beta   117.54131199
_cell_angle_gamma   119.47897428
_symmetry_Int_Tables_number   1
_chemical_formula_structural   LiTi2(PO4)3
_chemical_formula_sum   'Li2 Ti4 P6 O24'
_cell_volume   462.73378808
_cell_formula_units_Z   2
loop_
 _symmetry_equiv_pos_site_id
 _symmetry_equiv_pos_as_xyz
  1  'x, y, z'
loop_
 _atom_site_type_symbol
 _atom_site_label
 _atom_site_symmetry_multiplicity
 _atom_site_fract_x
 _atom_site_fract_y
 _atom_site_fract_z
 _atom_site_occupancy
  Li  Li0  1  0.196394  0.720985  0.419766  1
  Li  Li1  1  0.031767  0.767354  0.081411  1
  Ti  Ti2  1  0.690442  0.339476  0.054403  1
  Ti  Ti3  1  0.287470  0.153284  0.429668  1
  Ti  Ti4  1  0.299311  0.645901  0.940047  1
  Ti  Ti5  1  0.722102  0.860217  0.573222  1
  P  P6  1  0.496147  0.028837  0.249458  1
  P  P7  1  0.783780  0.530493  0.749213  1
  P  P8  1  0.214321  0.247563  0.750497  1
  P  P9  1  0.781347  0.745777  0.245519  1
  P  P10  1  0.218146  0.471664  0.246630  1
  P  P11  1  0.510664  0.972611  0.756193  1
  O  O12  1  0.630555  0.001837  0.420175  1
  O  O13  1  0.375872  0.107516  0.278300  1
  O  O14  1  0.992296  0.101108  0.723102  1
  O  O15  1  0.580611  0.364740  0.581319  1
  O  O16  1  0.263897  0.488116  0.098985  1
  O  O17  1  0.649285  0.171415  0.193933  1
  O  O18  1  0.385686  0.224213  0.900610  1
  O  O19  1  0.985492  0.526619  0.799529  1
  O  O20  1  0.204656  0.206580  0.578247  1
  O  O21  1  0.827594  0.723292  0.716233  1
  O  O22  1  0.680731  0.169393  0.898580  1
  O  O23  1  0.275637  0.454764  0.798394  1
  O  O24  1  0.717847  0.536312  0.196016  1
  O  O25  1  0.309974  0.834586  0.100888  1
  O  O26  1  0.165330  0.274946  0.278540  1
  O  O27  1  0.800197  0.791808  0.419904  1
  O  O28  1  0.026400  0.495250  0.202993  1
  O  O29  1  0.618193  0.777025  0.097700  1
  O  O30  1  0.357273  0.826466  0.810406  1
  O  O31  1  0.751130  0.524352  0.906060  1
  O  O32  1  0.409154  0.634720  0.420345  1
  O  O33  1  0.011648  0.874454  0.269531  1
  O  O34  1  0.626481  0.892402  0.724803  1
  O  O35  1  0.360772  0.983022  0.576579  1
