# generated using pymatgen
data_Ag2TeO4
_symmetry_space_group_name_H-M   'P 1'
_cell_length_a   6.20979316
_cell_length_b   6.24013378
_cell_length_c   7.31317208
_cell_angle_alpha   103.50180772
_cell_angle_beta   103.99422462
_cell_angle_gamma   116.17701485
_symmetry_Int_Tables_number   1
_chemical_formula_structural   Ag2TeO4
_chemical_formula_sum   'Ag4 Te2 O8'
_cell_volume   227.16555462
_cell_formula_units_Z   2
loop_
 _symmetry_equiv_pos_site_id
 _symmetry_equiv_pos_as_xyz
  1  'x, y, z'
loop_
 _atom_site_type_symbol
 _atom_site_label
 _atom_site_symmetry_multiplicity
 _atom_site_fract_x
 _atom_site_fract_y
 _atom_site_fract_z
 _atom_site_occupancy
  Ag  Ag0  1  0.979768  0.528698  0.751033  1
  Ag  Ag1  1  0.282942  0.221112  0.749224  1
  Ag  Ag2  1  0.020232  0.471302  0.248967  1
  Ag  Ag3  1  0.717058  0.778888  0.250776  1
  Te  Te4  1  0.377849  0.123054  0.250788  1
  Te  Te5  1  0.622151  0.876946  0.749212  1
  O  O6  1  0.727822  0.254314  0.408017  1
  O  O7  1  0.349719  0.310661  0.090425  1
  O  O8  1  0.187845  0.151663  0.407646  1
  O  O9  1  0.245278  0.775537  0.095172  1
  O  O10  1  0.754722  0.224463  0.904828  1
  O  O11  1  0.812155  0.848337  0.592354  1
  O  O12  1  0.650281  0.689339  0.909575  1
  O  O13  1  0.272178  0.745686  0.591983  1
