# generated using pymatgen
data_Li2TiVO5
_symmetry_space_group_name_H-M   'P 1'
_cell_length_a   6.71426104
_cell_length_b   6.71426104
_cell_length_c   4.61265021
_cell_angle_alpha   90.00000000
_cell_angle_beta   90.00000000
_cell_angle_gamma   90.00000000
_symmetry_Int_Tables_number   1
_chemical_formula_structural   Li2TiVO5
_chemical_formula_sum   'Li4 Ti2 V2 O10'
_cell_volume   207.94427397
_cell_formula_units_Z   2
loop_
 _symmetry_equiv_pos_site_id
 _symmetry_equiv_pos_as_xyz
  1  'x, y, z'
loop_
 _atom_site_type_symbol
 _atom_site_label
 _atom_site_symmetry_multiplicity
 _atom_site_fract_x
 _atom_site_fract_y
 _atom_site_fract_z
 _atom_site_occupancy
  Li  Li0  1  0.750000  0.250000  0.000000  1
  Li  Li1  1  0.250000  0.250000  0.000000  1
  Li  Li2  1  0.250000  0.750000  0.000000  1
  Li  Li3  1  0.750000  0.750000  0.000000  1
  Ti  Ti4  1  0.500000  0.500000  0.500000  1
  Ti  Ti5  1  0.000000  0.000000  0.500000  1
  V  V6  1  0.000000  0.500000  0.607659  1
  V  V7  1  0.500000  0.000000  0.392341  1
  O  O8  1  0.500000  0.281295  0.262864  1
  O  O9  1  0.000000  0.500000  0.241721  1
  O  O10  1  0.281295  0.500000  0.737136  1
  O  O11  1  0.718705  0.500000  0.737136  1
  O  O12  1  0.500000  0.718705  0.262864  1
  O  O13  1  0.000000  0.781295  0.737136  1
  O  O14  1  0.781295  0.000000  0.262864  1
  O  O15  1  0.218705  0.000000  0.262864  1
  O  O16  1  0.500000  0.000000  0.758279  1
  O  O17  1  0.000000  0.218705  0.737136  1
