# generated using pymatgen
data_Ba4Ce2O7
_symmetry_space_group_name_H-M   'P 1'
_cell_length_a   7.76800468
_cell_length_b   7.76800468
_cell_length_c   12.26184358
_cell_angle_alpha   90.00000000
_cell_angle_beta   90.00000000
_cell_angle_gamma   132.89288166
_symmetry_Int_Tables_number   1
_chemical_formula_structural   Ba4Ce2O7
_chemical_formula_sum   'Ba8 Ce4 O14'
_cell_volume   542.07318516
_cell_formula_units_Z   2
loop_
 _symmetry_equiv_pos_site_id
 _symmetry_equiv_pos_as_xyz
  1  'x, y, z'
loop_
 _atom_site_type_symbol
 _atom_site_label
 _atom_site_symmetry_multiplicity
 _atom_site_fract_x
 _atom_site_fract_y
 _atom_site_fract_z
 _atom_site_occupancy
  Ba  Ba0  1  0.628702  0.937357  0.880292  1
  Ba  Ba1  1  0.562643  0.871298  0.380292  1
  Ba  Ba2  1  0.937357  0.628702  0.880292  1
  Ba  Ba3  1  0.128702  0.437357  0.619708  1
  Ba  Ba4  1  0.871298  0.562643  0.380292  1
  Ba  Ba5  1  0.062643  0.371298  0.119708  1
  Ba  Ba6  1  0.437357  0.128702  0.619708  1
  Ba  Ba7  1  0.371298  0.062643  0.119708  1
  Ce  Ce8  1  0.768687  0.768687  0.630869  1
  Ce  Ce9  1  0.731313  0.731313  0.130869  1
  Ce  Ce10  1  0.268687  0.268687  0.869131  1
  Ce  Ce11  1  0.231313  0.231313  0.369131  1
  O  O12  1  0.596487  0.920117  0.617728  1
  O  O13  1  0.579883  0.903513  0.117728  1
  O  O14  1  0.000000  0.000000  0.000000  1
  O  O15  1  0.901400  0.901400  0.289498  1
  O  O16  1  0.096487  0.420117  0.882272  1
  O  O17  1  0.920117  0.596487  0.617728  1
  O  O18  1  0.079883  0.403513  0.382272  1
  O  O19  1  0.903513  0.579883  0.117728  1
  O  O20  1  0.598600  0.598600  0.789498  1
  O  O21  1  0.500000  0.500000  0.500000  1
  O  O22  1  0.401400  0.401400  0.210502  1
  O  O23  1  0.420117  0.096487  0.882272  1
  O  O24  1  0.403513  0.079883  0.382272  1
  O  O25  1  0.098600  0.098600  0.710502  1
