# generated using pymatgen
data_Li2Mn3CrO8
_symmetry_space_group_name_H-M   'P 1'
_cell_length_a   8.30672347
_cell_length_b   8.30672347
_cell_length_c   8.50183084
_cell_angle_alpha   90.00000000
_cell_angle_beta   90.00000000
_cell_angle_gamma   90.00000000
_symmetry_Int_Tables_number   1
_chemical_formula_structural   Li2Mn3CrO8
_chemical_formula_sum   'Li8 Mn12 Cr4 O32'
_cell_volume   586.64039624
_cell_formula_units_Z   4
loop_
 _symmetry_equiv_pos_site_id
 _symmetry_equiv_pos_as_xyz
  1  'x, y, z'
loop_
 _atom_site_type_symbol
 _atom_site_label
 _atom_site_symmetry_multiplicity
 _atom_site_fract_x
 _atom_site_fract_y
 _atom_site_fract_z
 _atom_site_occupancy
  Li  Li0  1  0.252301  0.500962  0.627187  1
  Li  Li1  1  0.499038  0.747699  0.872813  1
  Li  Li2  1  0.000962  0.247699  0.877187  1
  Li  Li3  1  0.247699  0.000962  0.122813  1
  Li  Li4  1  0.747699  0.499038  0.127187  1
  Li  Li5  1  0.500962  0.252301  0.372813  1
  Li  Li6  1  0.999038  0.752301  0.377187  1
  Li  Li7  1  0.752301  0.999038  0.622813  1
  Mn  Mn8  1  0.376888  0.123096  0.752780  1
  Mn  Mn9  1  0.627232  0.372768  0.750000  1
  Mn  Mn10  1  0.876904  0.623112  0.747220  1
  Mn  Mn11  1  0.623096  0.123112  0.002780  1
  Mn  Mn12  1  0.872768  0.872768  0.000000  1
  Mn  Mn13  1  0.123112  0.623096  0.997220  1
  Mn  Mn14  1  0.623112  0.876904  0.252780  1
  Mn  Mn15  1  0.372768  0.627232  0.250000  1
  Mn  Mn16  1  0.123096  0.376888  0.247220  1
  Mn  Mn17  1  0.376904  0.876888  0.502780  1
  Mn  Mn18  1  0.127232  0.127232  0.500000  1
  Mn  Mn19  1  0.876888  0.376904  0.497220  1
  Cr  Cr20  1  0.126463  0.873537  0.750000  1
  Cr  Cr21  1  0.373537  0.373537  0.000000  1
  Cr  Cr22  1  0.873537  0.126463  0.250000  1
  Cr  Cr23  1  0.626463  0.626463  0.500000  1
  O  O24  1  0.370642  0.890673  0.732295  1
  O  O25  1  0.148137  0.112348  0.753122  1
  O  O26  1  0.865723  0.386718  0.730110  1
  O  O27  1  0.391157  0.356214  0.762747  1
  O  O28  1  0.643786  0.608843  0.737253  1
  O  O29  1  0.613282  0.134277  0.769890  1
  O  O30  1  0.887652  0.851863  0.746878  1
  O  O31  1  0.109327  0.629358  0.767705  1
  O  O32  1  0.390673  0.129358  0.982295  1
  O  O33  1  0.612348  0.351863  0.003122  1
  O  O34  1  0.886718  0.634277  0.980110  1
  O  O35  1  0.856214  0.108843  0.012747  1
  O  O36  1  0.108843  0.856214  0.987253  1
  O  O37  1  0.634277  0.886718  0.019890  1
  O  O38  1  0.351863  0.612348  0.996878  1
  O  O39  1  0.129358  0.390673  0.017705  1
  O  O40  1  0.629358  0.109327  0.232295  1
  O  O41  1  0.851863  0.887652  0.253122  1
  O  O42  1  0.134277  0.613282  0.230110  1
  O  O43  1  0.608843  0.643786  0.262747  1
  O  O44  1  0.356214  0.391157  0.237253  1
  O  O45  1  0.386718  0.865723  0.269890  1
  O  O46  1  0.112348  0.148137  0.246878  1
  O  O47  1  0.890673  0.370642  0.267705  1
  O  O48  1  0.609327  0.870642  0.482295  1
  O  O49  1  0.387652  0.648137  0.503122  1
  O  O50  1  0.113282  0.365723  0.480110  1
  O  O51  1  0.143786  0.891157  0.512747  1
  O  O52  1  0.891157  0.143786  0.487253  1
  O  O53  1  0.365723  0.113282  0.519890  1
  O  O54  1  0.648137  0.387652  0.496878  1
  O  O55  1  0.870642  0.609327  0.517705  1
