# generated using pymatgen
data_Ti3Mn2Cu(PO4)6
_symmetry_space_group_name_H-M   'P 1'
_cell_length_a   8.63639969
_cell_length_b   8.63639969
_cell_length_c   8.63639969
_cell_angle_alpha   60.16823431
_cell_angle_beta   60.16823431
_cell_angle_gamma   60.16823431
_symmetry_Int_Tables_number   1
_chemical_formula_structural   Ti3Mn2Cu(PO4)6
_chemical_formula_sum   'Ti3 Mn2 Cu1 P6 O24'
_cell_volume   457.23010536
_cell_formula_units_Z   1
loop_
 _symmetry_equiv_pos_site_id
 _symmetry_equiv_pos_as_xyz
  1  'x, y, z'
loop_
 _atom_site_type_symbol
 _atom_site_label
 _atom_site_symmetry_multiplicity
 _atom_site_fract_x
 _atom_site_fract_y
 _atom_site_fract_z
 _atom_site_occupancy
  Ti  Ti0  1  0.856325  0.856325  0.856325  1
  Ti  Ti1  1  0.646208  0.646208  0.646208  1
  Ti  Ti2  1  0.352912  0.352912  0.352912  1
  Mn  Mn3  1  0.004635  0.004635  0.004635  1
  Mn  Mn4  1  0.500846  0.500846  0.500846  1
  Cu  Cu5  1  0.146470  0.146470  0.146470  1
  P  P6  1  0.748199  0.457940  0.044453  1
  P  P7  1  0.457940  0.044453  0.748199  1
  P  P8  1  0.044453  0.748199  0.457940  1
  P  P9  1  0.953970  0.247792  0.542952  1
  P  P10  1  0.542952  0.953970  0.247792  1
  P  P11  1  0.247792  0.542952  0.953970  1
  O  O12  1  0.885327  0.676264  0.513208  1
  O  O13  1  0.676264  0.513208  0.885327  1
  O  O14  1  0.940982  0.086671  0.739851  1
  O  O15  1  0.513208  0.885327  0.676264  1
  O  O16  1  0.980547  0.191731  0.390300  1
  O  O17  1  0.761680  0.414295  0.569804  1
  O  O18  1  0.739851  0.940982  0.086671  1
  O  O19  1  0.569804  0.761680  0.414295  1
  O  O20  1  0.809808  0.621697  0.998728  1
  O  O21  1  0.414295  0.569804  0.761680  1
  O  O22  1  0.906103  0.267565  0.052003  1
  O  O23  1  0.621697  0.998728  0.809808  1
  O  O24  1  0.390300  0.980547  0.191731  1
  O  O25  1  0.086671  0.739851  0.940982  1
  O  O26  1  0.581845  0.447699  0.236346  1
  O  O27  1  0.191731  0.390300  0.980547  1
  O  O28  1  0.447699  0.236346  0.581845  1
  O  O29  1  0.267565  0.052003  0.906103  1
  O  O30  1  0.236346  0.581845  0.447699  1
  O  O31  1  0.998728  0.809808  0.621697  1
  O  O32  1  0.496297  0.120910  0.307635  1
  O  O33  1  0.052003  0.906103  0.267565  1
  O  O34  1  0.307635  0.496297  0.120910  1
  O  O35  1  0.120910  0.307635  0.496297  1
