# generated using pymatgen
data_Li2CoP2O7
_symmetry_space_group_name_H-M   'P 1'
_cell_length_a   5.11862772
_cell_length_b   7.07438257
_cell_length_c   8.72648965
_cell_angle_alpha   101.50649712
_cell_angle_beta   106.65190182
_cell_angle_gamma   110.71662956
_symmetry_Int_Tables_number   1
_chemical_formula_structural   Li2CoP2O7
_chemical_formula_sum   'Li4 Co2 P4 O14'
_cell_volume   266.73425576
_cell_formula_units_Z   2
loop_
 _symmetry_equiv_pos_site_id
 _symmetry_equiv_pos_as_xyz
  1  'x, y, z'
loop_
 _atom_site_type_symbol
 _atom_site_label
 _atom_site_symmetry_multiplicity
 _atom_site_fract_x
 _atom_site_fract_y
 _atom_site_fract_z
 _atom_site_occupancy
  Li  Li0  1  0.934689  0.698098  0.008357  1
  Li  Li1  1  0.423925  0.138053  0.752392  1
  Li  Li2  1  0.576075  0.861947  0.247608  1
  Li  Li3  1  0.065311  0.301902  0.991643  1
  Co  Co4  1  0.193967  0.180447  0.337504  1
  Co  Co5  1  0.806033  0.819553  0.662496  1
  P  P6  1  0.142869  0.744758  0.392595  1
  P  P7  1  0.661879  0.304250  0.141114  1
  P  P8  1  0.338121  0.695750  0.858886  1
  P  P9  1  0.857131  0.255242  0.607405  1
  O  O10  1  0.440266  0.720770  0.429262  1
  O  O11  1  0.114396  0.858620  0.549059  1
  O  O12  1  0.098647  0.853944  0.255209  1
  O  O13  1  0.651371  0.765093  0.849568  1
  O  O14  1  0.683767  0.376129  0.988916  1
  O  O15  1  0.865713  0.510985  0.315545  1
  O  O16  1  0.206636  0.858148  0.848317  1
  O  O17  1  0.793364  0.141852  0.151683  1
  O  O18  1  0.134287  0.489015  0.684455  1
  O  O19  1  0.316233  0.623871  0.011084  1
  O  O20  1  0.348629  0.234907  0.150432  1
  O  O21  1  0.901353  0.146056  0.744791  1
  O  O22  1  0.885604  0.141380  0.450941  1
  O  O23  1  0.559734  0.279230  0.570738  1
