# generated using pymatgen
data_MnOF
_symmetry_space_group_name_H-M   'P 1'
_cell_length_a   4.67066159
_cell_length_b   5.69541421
_cell_length_c   7.77939286
_cell_angle_alpha   85.41130974
_cell_angle_beta   88.01678716
_cell_angle_gamma   87.13601005
_symmetry_Int_Tables_number   1
_chemical_formula_structural   MnOF
_chemical_formula_sum   'Mn6 O6 F6'
_cell_volume   205.92400336
_cell_formula_units_Z   6
loop_
 _symmetry_equiv_pos_site_id
 _symmetry_equiv_pos_as_xyz
  1  'x, y, z'
loop_
 _atom_site_type_symbol
 _atom_site_label
 _atom_site_symmetry_multiplicity
 _atom_site_fract_x
 _atom_site_fract_y
 _atom_site_fract_z
 _atom_site_occupancy
  Mn  Mn0  1  0.500000  0.500000  0.000000  1
  Mn  Mn1  1  0.515396  0.830315  0.650321  1
  Mn  Mn2  1  0.484604  0.169685  0.349679  1
  Mn  Mn3  1  0.018212  0.338204  0.683889  1
  Mn  Mn4  1  0.981788  0.661796  0.316111  1
  Mn  Mn5  1  0.000000  0.000000  0.000000  1
  O  O6  1  0.814482  0.713902  0.092250  1
  O  O7  1  0.689812  0.533897  0.766119  1
  O  O8  1  0.698806  0.876589  0.428118  1
  O  O9  1  0.301194  0.123411  0.571882  1
  O  O10  1  0.310188  0.466103  0.233881  1
  O  O11  1  0.185518  0.286098  0.907750  1
  F  F12  1  0.815093  0.362398  0.456041  1
  F  F13  1  0.792170  0.033005  0.783647  1
  F  F14  1  0.701361  0.198895  0.127182  1
  F  F15  1  0.298639  0.801105  0.872818  1
  F  F16  1  0.184907  0.637602  0.543959  1
  F  F17  1  0.207830  0.966995  0.216353  1
