# generated using pymatgen
data_MgFeO3
_symmetry_space_group_name_H-M   'P 1'
_cell_length_a   6.49750195
_cell_length_b   6.49750195
_cell_length_c   5.36117399
_cell_angle_alpha   89.97931810
_cell_angle_beta   90.02068190
_cell_angle_gamma   96.86002514
_symmetry_Int_Tables_number   1
_chemical_formula_structural   MgFeO3
_chemical_formula_sum   'Mg4 Fe4 O12'
_cell_volume   224.71515172
_cell_formula_units_Z   4
loop_
 _symmetry_equiv_pos_site_id
 _symmetry_equiv_pos_as_xyz
  1  'x, y, z'
loop_
 _atom_site_type_symbol
 _atom_site_label
 _atom_site_symmetry_multiplicity
 _atom_site_fract_x
 _atom_site_fract_y
 _atom_site_fract_z
 _atom_site_occupancy
  Mg  Mg0  1  0.796091  0.408309  0.280321  1
  Mg  Mg1  1  0.591691  0.203909  0.780321  1
  Mg  Mg2  1  0.408309  0.796091  0.219679  1
  Mg  Mg3  1  0.203909  0.591691  0.719679  1
  Fe  Fe4  1  0.912412  0.912412  0.250000  1
  Fe  Fe5  1  0.267662  0.267662  0.250000  1
  Fe  Fe6  1  0.732338  0.732338  0.750000  1
  Fe  Fe7  1  0.087588  0.087588  0.750000  1
  O  O8  1  0.979205  0.191145  0.390280  1
  O  O9  1  0.808855  0.020795  0.890280  1
  O  O10  1  0.877119  0.661883  0.085561  1
  O  O11  1  0.725488  0.467341  0.631193  1
  O  O12  1  0.338117  0.122881  0.585561  1
  O  O13  1  0.532659  0.274512  0.131193  1
  O  O14  1  0.467341  0.725488  0.868807  1
  O  O15  1  0.661883  0.877119  0.414439  1
  O  O16  1  0.274512  0.532659  0.368807  1
  O  O17  1  0.122881  0.338117  0.914439  1
  O  O18  1  0.191145  0.979205  0.109720  1
  O  O19  1  0.020795  0.808855  0.609720  1
