# generated using pymatgen
data_VCoO4
_symmetry_space_group_name_H-M   'P 1'
_cell_length_a   4.62652671
_cell_length_b   5.56178716
_cell_length_c   10.44688011
_cell_angle_alpha   90.00000000
_cell_angle_beta   90.00000000
_cell_angle_gamma   90.00000000
_symmetry_Int_Tables_number   1
_chemical_formula_structural   VCoO4
_chemical_formula_sum   'V4 Co4 O16'
_cell_volume   268.81657915
_cell_formula_units_Z   4
loop_
 _symmetry_equiv_pos_site_id
 _symmetry_equiv_pos_as_xyz
  1  'x, y, z'
loop_
 _atom_site_type_symbol
 _atom_site_label
 _atom_site_symmetry_multiplicity
 _atom_site_fract_x
 _atom_site_fract_y
 _atom_site_fract_z
 _atom_site_occupancy
  V  V0  1  0.414240  0.250000  0.412692  1
  V  V1  1  0.085760  0.250000  0.912692  1
  V  V2  1  0.914240  0.750000  0.087308  1
  V  V3  1  0.585760  0.750000  0.587308  1
  Co  Co4  1  0.982444  0.250000  0.238599  1
  Co  Co5  1  0.517556  0.250000  0.738599  1
  Co  Co6  1  0.482444  0.750000  0.261401  1
  Co  Co7  1  0.017556  0.750000  0.761401  1
  O  O8  1  0.247205  0.011325  0.322054  1
  O  O9  1  0.252795  0.011325  0.822054  1
  O  O10  1  0.161806  0.250000  0.074067  1
  O  O11  1  0.778277  0.250000  0.392982  1
  O  O12  1  0.721723  0.250000  0.892982  1
  O  O13  1  0.338194  0.250000  0.574067  1
  O  O14  1  0.247205  0.488675  0.322054  1
  O  O15  1  0.252795  0.488675  0.822054  1
  O  O16  1  0.752795  0.511325  0.677946  1
  O  O17  1  0.747205  0.511325  0.177946  1
  O  O18  1  0.838194  0.750000  0.925933  1
  O  O19  1  0.661806  0.750000  0.425933  1
  O  O20  1  0.278277  0.750000  0.107018  1
  O  O21  1  0.221723  0.750000  0.607018  1
  O  O22  1  0.747205  0.988675  0.177946  1
  O  O23  1  0.752795  0.988675  0.677946  1
