# generated using pymatgen
data_LiCr2P3O13
_symmetry_space_group_name_H-M   'P 1'
_cell_length_a   6.19495528
_cell_length_b   7.40920258
_cell_length_c   10.75049924
_cell_angle_alpha   74.89071660
_cell_angle_beta   85.73532490
_cell_angle_gamma   80.59069080
_symmetry_Int_Tables_number   1
_chemical_formula_structural   LiCr2P3O13
_chemical_formula_sum   'Li2 Cr4 P6 O26'
_cell_volume   469.71560778
_cell_formula_units_Z   2
loop_
 _symmetry_equiv_pos_site_id
 _symmetry_equiv_pos_as_xyz
  1  'x, y, z'
loop_
 _atom_site_type_symbol
 _atom_site_label
 _atom_site_symmetry_multiplicity
 _atom_site_fract_x
 _atom_site_fract_y
 _atom_site_fract_z
 _atom_site_occupancy
  Li  Li0  1  0.285211  0.566091  0.776747  1
  Li  Li1  1  0.714789  0.433909  0.223253  1
  Cr  Cr2  1  0.220871  0.204194  0.088416  1
  Cr  Cr3  1  0.245548  0.195334  0.592023  1
  Cr  Cr4  1  0.754452  0.804666  0.407977  1
  Cr  Cr5  1  0.779129  0.795806  0.911584  1
  P  P6  1  0.115358  0.468827  0.306234  1
  P  P7  1  0.254086  0.803306  0.336324  1
  P  P8  1  0.263410  0.931858  0.890325  1
  P  P9  1  0.736590  0.068142  0.109675  1
  P  P10  1  0.745914  0.196694  0.663676  1
  P  P11  1  0.884642  0.531173  0.693766  1
  O  O12  1  0.132637  0.386503  0.189799  1
  O  O13  1  0.124166  0.472026  0.659431  1
  O  O14  1  0.061228  0.780811  0.435575  1
  O  O15  1  0.220406  0.113088  0.779758  1
  O  O16  1  0.257677  0.344498  0.416999  1
  O  O17  1  0.089388  0.799302  0.900520  1
  O  O18  1  0.236487  0.654870  0.251705  1
  O  O19  1  0.246876  0.355496  0.951582  1
  O  O20  1  0.272655  0.988239  0.017536  1
  O  O21  1  0.235279  0.002091  0.253481  1
  O  O22  1  0.525398  0.202078  0.132206  1
  O  O23  1  0.314810  0.986091  0.577550  1
  O  O24  1  0.527861  0.269278  0.596602  1
  O  O25  1  0.472139  0.730722  0.403398  1
  O  O26  1  0.685190  0.013909  0.422450  1
  O  O27  1  0.474602  0.797922  0.867794  1
  O  O28  1  0.764721  0.997909  0.746519  1
  O  O29  1  0.727345  0.011761  0.982464  1
  O  O30  1  0.753124  0.644504  0.048418  1
  O  O31  1  0.763513  0.345130  0.748295  1
  O  O32  1  0.910612  0.200698  0.099480  1
  O  O33  1  0.742323  0.655502  0.583001  1
  O  O34  1  0.779594  0.886912  0.220242  1
  O  O35  1  0.938772  0.219189  0.564425  1
  O  O36  1  0.875834  0.527974  0.340569  1
  O  O37  1  0.867363  0.613497  0.810201  1
