# generated using pymatgen
data_La2Ce2O7
_symmetry_space_group_name_H-M   'P 1'
_cell_length_a   8.43410790
_cell_length_b   6.00678068
_cell_length_c   14.67696145
_cell_angle_alpha   90.00000000
_cell_angle_beta   98.47177806
_cell_angle_gamma   90.00000000
_symmetry_Int_Tables_number   1
_chemical_formula_structural   La2Ce2O7
_chemical_formula_sum   'La8 Ce8 O28'
_cell_volume   735.44848166
_cell_formula_units_Z   4
loop_
 _symmetry_equiv_pos_site_id
 _symmetry_equiv_pos_as_xyz
  1  'x, y, z'
loop_
 _atom_site_type_symbol
 _atom_site_label
 _atom_site_symmetry_multiplicity
 _atom_site_fract_x
 _atom_site_fract_y
 _atom_site_fract_z
 _atom_site_occupancy
  La  La0  1  0.765739  0.771753  0.082673  1
  La  La1  1  0.859277  0.332214  0.439126  1
  La  La2  1  0.716229  0.251259  0.876087  1
  La  La3  1  0.642309  0.751056  0.594621  1
  La  La4  1  0.357691  0.251056  0.405379  1
  La  La5  1  0.283771  0.751259  0.123913  1
  La  La6  1  0.140723  0.832214  0.560874  1
  La  La7  1  0.234261  0.271753  0.917327  1
  Ce  Ce8  1  0.925086  0.270703  0.684525  1
  Ce  Ce9  1  0.970642  0.765874  0.884687  1
  Ce  Ce10  1  0.584341  0.780496  0.321727  1
  Ce  Ce11  1  0.528673  0.268137  0.120714  1
  Ce  Ce12  1  0.471327  0.768137  0.879286  1
  Ce  Ce13  1  0.415659  0.280496  0.678273  1
  Ce  Ce14  1  0.029358  0.265874  0.115313  1
  Ce  Ce15  1  0.074914  0.770703  0.315475  1
  O  O16  1  0.997860  0.425070  0.829973  1
  O  O17  1  0.912136  0.552912  0.581204  1
  O  O18  1  0.825445  0.646797  0.311514  1
  O  O19  1  0.775779  0.381796  0.107628  1
  O  O20  1  0.868912  0.055232  0.565324  1
  O  O21  1  0.927517  0.055701  0.979023  1
  O  O22  1  0.861100  0.984416  0.776260  1
  O  O23  1  0.624492  0.101914  0.386974  1
  O  O24  1  0.578216  0.924322  0.170424  1
  O  O25  1  0.676244  0.415241  0.701455  1
  O  O26  1  0.729076  0.645335  0.921390  1
  O  O27  1  0.594201  0.569512  0.451409  1
  O  O28  1  0.442720  0.553869  0.022228  1
  O  O29  1  0.472701  0.494733  0.226319  1
  O  O30  1  0.527299  0.994733  0.773681  1
  O  O31  1  0.557280  0.053869  0.977772  1
  O  O32  1  0.405799  0.069512  0.548591  1
  O  O33  1  0.270924  0.145335  0.078610  1
  O  O34  1  0.323756  0.915241  0.298545  1
  O  O35  1  0.421784  0.424322  0.829576  1
  O  O36  1  0.375508  0.601914  0.613026  1
  O  O37  1  0.138900  0.484416  0.223740  1
  O  O38  1  0.072483  0.555701  0.020977  1
  O  O39  1  0.131088  0.555232  0.434676  1
  O  O40  1  0.224221  0.881796  0.892372  1
  O  O41  1  0.174555  0.146797  0.688486  1
  O  O42  1  0.087864  0.052912  0.418796  1
  O  O43  1  0.002140  0.925070  0.170027  1
