# generated using pymatgen
data_Mn3O5F
_symmetry_space_group_name_H-M   'P 1'
_cell_length_a   4.56448210
_cell_length_b   5.46589653
_cell_length_c   7.52851118
_cell_angle_alpha   86.05481875
_cell_angle_beta   88.73389987
_cell_angle_gamma   88.04432293
_symmetry_Int_Tables_number   1
_chemical_formula_structural   Mn3O5F
_chemical_formula_sum   'Mn6 O10 F2'
_cell_volume   187.23775291
_cell_formula_units_Z   2
loop_
 _symmetry_equiv_pos_site_id
 _symmetry_equiv_pos_as_xyz
  1  'x, y, z'
loop_
 _atom_site_type_symbol
 _atom_site_label
 _atom_site_symmetry_multiplicity
 _atom_site_fract_x
 _atom_site_fract_y
 _atom_site_fract_z
 _atom_site_occupancy
  Mn  Mn0  1  0.494830  0.495985  0.998219  1
  Mn  Mn1  1  0.514313  0.842900  0.671038  1
  Mn  Mn2  1  0.515636  0.176463  0.339725  1
  Mn  Mn3  1  0.996816  0.326359  0.671532  1
  Mn  Mn4  1  0.977626  0.653560  0.323381  1
  Mn  Mn5  1  0.995353  0.000211  0.994467  1
  O  O6  1  0.804228  0.366278  0.438820  1
  O  O7  1  0.808356  0.038777  0.769368  1
  O  O8  1  0.802572  0.704850  0.098004  1
  O  O9  1  0.694487  0.203714  0.103635  1
  O  O10  1  0.694051  0.536459  0.768026  1
  O  O11  1  0.698181  0.871722  0.434741  1
  O  O12  1  0.304896  0.128920  0.564462  1
  O  O13  1  0.306797  0.465761  0.233073  1
  O  O14  1  0.305779  0.796369  0.897608  1
  O  O15  1  0.192791  0.293587  0.898132  1
  F  F16  1  0.192850  0.630918  0.561851  1
  F  F17  1  0.200439  0.967166  0.233921  1
