# generated using pymatgen
data_Li2Mn3P4(HO4)4
_symmetry_space_group_name_H-M   'P 1'
_cell_length_a   8.90395881
_cell_length_b   8.24856135
_cell_length_c   9.22606775
_cell_angle_alpha   90.00000000
_cell_angle_beta   99.45354802
_cell_angle_gamma   90.00000000
_symmetry_Int_Tables_number   1
_chemical_formula_structural   Li2Mn3P4(HO4)4
_chemical_formula_sum   'Li4 Mn6 P8 H8 O32'
_cell_volume   668.40464307
_cell_formula_units_Z   2
loop_
 _symmetry_equiv_pos_site_id
 _symmetry_equiv_pos_as_xyz
  1  'x, y, z'
loop_
 _atom_site_type_symbol
 _atom_site_label
 _atom_site_symmetry_multiplicity
 _atom_site_fract_x
 _atom_site_fract_y
 _atom_site_fract_z
 _atom_site_occupancy
  Li  Li0  1  0.016485  0.330408  0.972023  1
  Li  Li1  1  0.016485  0.169592  0.472023  1
  Li  Li2  1  0.983515  0.830408  0.527977  1
  Li  Li3  1  0.983515  0.669592  0.027977  1
  Mn  Mn4  1  0.500000  0.500000  0.000000  1
  Mn  Mn5  1  0.651126  0.139079  0.994722  1
  Mn  Mn6  1  0.348874  0.639079  0.505278  1
  Mn  Mn7  1  0.500000  0.000000  0.500000  1
  Mn  Mn8  1  0.651126  0.360921  0.494722  1
  Mn  Mn9  1  0.348874  0.860921  0.005278  1
  P  P10  1  0.175090  0.565520  0.772855  1
  P  P11  1  0.617426  0.803309  0.795524  1
  P  P12  1  0.382574  0.303309  0.704476  1
  P  P13  1  0.824910  0.065520  0.727145  1
  P  P14  1  0.175090  0.934480  0.272855  1
  P  P15  1  0.617426  0.696691  0.295524  1
  P  P16  1  0.382574  0.196691  0.204476  1
  P  P17  1  0.824910  0.434480  0.227145  1
  H  H18  1  0.110704  0.999893  0.782799  1
  H  H19  1  0.276146  0.040960  0.765979  1
  H  H20  1  0.723854  0.540960  0.734021  1
  H  H21  1  0.889296  0.499893  0.717201  1
  H  H22  1  0.110704  0.500107  0.282799  1
  H  H23  1  0.276146  0.459040  0.265979  1
  H  H24  1  0.723854  0.959040  0.234021  1
  H  H25  1  0.889296  0.000107  0.217201  1
  O  O26  1  0.313941  0.633796  0.876649  1
  O  O27  1  0.214493  0.002764  0.840976  1
  O  O28  1  0.547998  0.926028  0.889749  1
  O  O29  1  0.040205  0.539413  0.855301  1
  O  O30  1  0.480340  0.290805  0.857841  1
  O  O31  1  0.658089  0.640492  0.869993  1
  O  O32  1  0.860734  0.161869  0.871134  1
  O  O33  1  0.217612  0.380332  0.728839  1
  O  O34  1  0.782388  0.880332  0.771161  1
  O  O35  1  0.139266  0.661869  0.628866  1
  O  O36  1  0.341911  0.140492  0.630007  1
  O  O37  1  0.519660  0.790805  0.642159  1
  O  O38  1  0.959795  0.039413  0.644699  1
  O  O39  1  0.452002  0.426028  0.610251  1
  O  O40  1  0.785507  0.502764  0.659024  1
  O  O41  1  0.686059  0.133796  0.623351  1
  O  O42  1  0.313941  0.866204  0.376649  1
  O  O43  1  0.214493  0.497236  0.340976  1
  O  O44  1  0.547998  0.573972  0.389749  1
  O  O45  1  0.040205  0.960587  0.355301  1
  O  O46  1  0.480340  0.209195  0.357841  1
  O  O47  1  0.658089  0.859508  0.369993  1
  O  O48  1  0.860734  0.338131  0.371134  1
  O  O49  1  0.217612  0.119668  0.228839  1
  O  O50  1  0.782388  0.619668  0.271161  1
  O  O51  1  0.139266  0.838131  0.128866  1
  O  O52  1  0.341911  0.359508  0.130007  1
  O  O53  1  0.519660  0.709195  0.142159  1
  O  O54  1  0.959795  0.460587  0.144699  1
  O  O55  1  0.452002  0.073972  0.110251  1
  O  O56  1  0.785507  0.997236  0.159024  1
  O  O57  1  0.686059  0.366204  0.123351  1
