# generated using pymatgen
data_Li3V4NiO12
_symmetry_space_group_name_H-M   'P 1'
_cell_length_a   6.83783849
_cell_length_b   6.83783849
_cell_length_c   5.82258423
_cell_angle_alpha   74.26650642
_cell_angle_beta   105.73349358
_cell_angle_gamma   96.97488835
_symmetry_Int_Tables_number   1
_chemical_formula_structural   Li3V4NiO12
_chemical_formula_sum   'Li3 V4 Ni1 O12'
_cell_volume   251.88582584
_cell_formula_units_Z   1
loop_
 _symmetry_equiv_pos_site_id
 _symmetry_equiv_pos_as_xyz
  1  'x, y, z'
loop_
 _atom_site_type_symbol
 _atom_site_label
 _atom_site_symmetry_multiplicity
 _atom_site_fract_x
 _atom_site_fract_y
 _atom_site_fract_z
 _atom_site_occupancy
  Li  Li0  1  0.906011  0.906011  0.000000  1
  Li  Li1  1  0.754011  0.754011  0.500000  1
  Li  Li2  1  0.242613  0.242613  0.000000  1
  V  V3  1  0.389589  0.799544  0.015510  1
  V  V4  1  0.197363  0.609307  0.518197  1
  V  V5  1  0.799544  0.389589  0.984490  1
  V  V6  1  0.609307  0.197363  0.481803  1
  Ni  Ni7  1  0.084799  0.084799  0.500000  1
  O  O8  1  0.214559  0.986033  0.888017  1
  O  O9  1  0.627653  0.904332  0.071886  1
  O  O10  1  0.020252  0.795725  0.414040  1
  O  O11  1  0.361832  0.636411  0.813962  1
  O  O12  1  0.904332  0.627653  0.928114  1
  O  O13  1  0.362345  0.646056  0.307561  1
  O  O14  1  0.636411  0.361832  0.186038  1
  O  O15  1  0.096824  0.364743  0.574870  1
  O  O16  1  0.646056  0.362345  0.692439  1
  O  O17  1  0.986033  0.214559  0.111983  1
  O  O18  1  0.364743  0.096824  0.425130  1
  O  O19  1  0.795725  0.020252  0.585960  1
