# generated using pymatgen
data_Fe6O5F7
_symmetry_space_group_name_H-M   'P 1'
_cell_length_a   4.76625243
_cell_length_b   5.66126095
_cell_length_c   7.88720775
_cell_angle_alpha   85.09557422
_cell_angle_beta   87.86098980
_cell_angle_gamma   87.21633774
_symmetry_Int_Tables_number   1
_chemical_formula_structural   Fe6O5F7
_chemical_formula_sum   'Fe6 O5 F7'
_cell_volume   211.67341844
_cell_formula_units_Z   1
loop_
 _symmetry_equiv_pos_site_id
 _symmetry_equiv_pos_as_xyz
  1  'x, y, z'
loop_
 _atom_site_type_symbol
 _atom_site_label
 _atom_site_symmetry_multiplicity
 _atom_site_fract_x
 _atom_site_fract_y
 _atom_site_fract_z
 _atom_site_occupancy
  Fe  Fe0  1  0.521959  0.825215  0.647524  1
  Fe  Fe1  1  0.526065  0.518281  0.010720  1
  Fe  Fe2  1  0.472502  0.171545  0.350762  1
  Fe  Fe3  1  0.999897  0.334767  0.674158  1
  Fe  Fe4  1  0.987557  0.664565  0.315194  1
  Fe  Fe5  1  0.991680  0.988943  0.000944  1
  O  O6  1  0.807103  0.696503  0.099884  1
  O  O7  1  0.697600  0.532778  0.766907  1
  O  O8  1  0.702213  0.876024  0.427534  1
  O  O9  1  0.294632  0.127561  0.576003  1
  O  O10  1  0.305587  0.463105  0.233461  1
  F  F11  1  0.806824  0.370336  0.438151  1
  F  F12  1  0.794584  0.040441  0.761979  1
  F  F13  1  0.685920  0.203983  0.108510  1
  F  F14  1  0.315411  0.797092  0.887618  1
  F  F15  1  0.206659  0.962426  0.236596  1
  F  F16  1  0.191610  0.626146  0.562841  1
  F  F17  1  0.192199  0.300288  0.901213  1
