# generated using pymatgen
data_Li4TiMn5O12
_symmetry_space_group_name_H-M   'P 1'
_cell_length_a   5.14860563
_cell_length_b   5.14860563
_cell_length_c   10.25562254
_cell_angle_alpha   88.93292620
_cell_angle_beta   91.06707380
_cell_angle_gamma   61.74545423
_symmetry_Int_Tables_number   1
_chemical_formula_structural   Li4TiMn5O12
_chemical_formula_sum   'Li4 Ti1 Mn5 O12'
_cell_volume   239.30876642
_cell_formula_units_Z   1
loop_
 _symmetry_equiv_pos_site_id
 _symmetry_equiv_pos_as_xyz
  1  'x, y, z'
loop_
 _atom_site_type_symbol
 _atom_site_label
 _atom_site_symmetry_multiplicity
 _atom_site_fract_x
 _atom_site_fract_y
 _atom_site_fract_z
 _atom_site_occupancy
  Li  Li0  1  0.642088  0.860646  0.249451  1
  Li  Li1  1  0.860646  0.642088  0.750549  1
  Li  Li2  1  0.139354  0.357912  0.249451  1
  Li  Li3  1  0.357912  0.139354  0.750549  1
  Ti  Ti4  1  0.000000  0.000000  0.000000  1
  Mn  Mn5  1  0.835924  0.835924  0.500000  1
  Mn  Mn6  1  0.335133  0.335133  0.000000  1
  Mn  Mn7  1  0.664867  0.664867  0.000000  1
  Mn  Mn8  1  0.164076  0.164076  0.500000  1
  Mn  Mn9  1  0.500000  0.500000  0.500000  1
  O  O10  1  0.693205  0.965172  0.889750  1
  O  O11  1  0.965172  0.693205  0.110250  1
  O  O12  1  0.528585  0.834558  0.607844  1
  O  O13  1  0.165442  0.471415  0.607844  1
  O  O14  1  0.834558  0.528585  0.392156  1
  O  O15  1  0.169104  0.830896  0.409093  1
  O  O16  1  0.471415  0.165442  0.392156  1
  O  O17  1  0.034828  0.306795  0.889750  1
  O  O18  1  0.323794  0.676206  0.906678  1
  O  O19  1  0.306795  0.034828  0.110250  1
  O  O20  1  0.676206  0.323794  0.093322  1
  O  O21  1  0.830896  0.169104  0.590907  1
