# generated using pymatgen
data_NaSc(SiO3)2
_symmetry_space_group_name_H-M   'P 1'
_cell_length_a   6.77819909
_cell_length_b   6.77819909
_cell_length_c   5.42133902
_cell_angle_alpha   77.10824308
_cell_angle_beta   102.89175692
_cell_angle_gamma   95.04716641
_symmetry_Int_Tables_number   1
_chemical_formula_structural   NaSc(SiO3)2
_chemical_formula_sum   'Na2 Sc2 Si4 O12'
_cell_volume   236.48799549
_cell_formula_units_Z   2
loop_
 _symmetry_equiv_pos_site_id
 _symmetry_equiv_pos_as_xyz
  1  'x, y, z'
loop_
 _atom_site_type_symbol
 _atom_site_label
 _atom_site_symmetry_multiplicity
 _atom_site_fract_x
 _atom_site_fract_y
 _atom_site_fract_z
 _atom_site_occupancy
  Na  Na0  1  0.300256  0.300256  0.750000  1
  Na  Na1  1  0.699744  0.699744  0.250000  1
  Sc  Sc2  1  0.894430  0.894430  0.750000  1
  Sc  Sc3  1  0.105570  0.105570  0.250000  1
  Si  Si4  1  0.377092  0.796260  0.744752  1
  Si  Si5  1  0.203740  0.622908  0.244752  1
  Si  Si6  1  0.796260  0.377092  0.755248  1
  Si  Si7  1  0.622908  0.203740  0.255248  1
  O  O8  1  0.353241  0.654804  0.524223  1
  O  O9  1  0.654804  0.353241  0.975777  1
  O  O10  1  0.646759  0.345196  0.475777  1
  O  O11  1  0.345196  0.646759  0.024223  1
  O  O12  1  0.607274  0.886425  0.803965  1
  O  O13  1  0.886425  0.607274  0.696035  1
  O  O14  1  0.392726  0.113575  0.196035  1
  O  O15  1  0.113575  0.392726  0.303965  1
  O  O16  1  0.039411  0.802996  0.145511  1
  O  O17  1  0.802996  0.039411  0.354489  1
  O  O18  1  0.960589  0.197004  0.854489  1
  O  O19  1  0.197004  0.960589  0.645511  1
