# generated using pymatgen
data_Li4V3(OF2)4
_symmetry_space_group_name_H-M   'P 1'
_cell_length_a   5.68102108
_cell_length_b   5.76522743
_cell_length_c   6.54811583
_cell_angle_alpha   98.03954052
_cell_angle_beta   100.15264610
_cell_angle_gamma   95.51483187
_symmetry_Int_Tables_number   1
_chemical_formula_structural   Li4V3(OF2)4
_chemical_formula_sum   'Li4 V3 O4 F8'
_cell_volume   207.42283468
_cell_formula_units_Z   1
loop_
 _symmetry_equiv_pos_site_id
 _symmetry_equiv_pos_as_xyz
  1  'x, y, z'
loop_
 _atom_site_type_symbol
 _atom_site_label
 _atom_site_symmetry_multiplicity
 _atom_site_fract_x
 _atom_site_fract_y
 _atom_site_fract_z
 _atom_site_occupancy
  Li  Li0  1  0.879851  0.680319  0.463935  1
  Li  Li1  1  0.689037  0.399243  0.839340  1
  Li  Li2  1  0.402149  0.860642  0.668273  1
  Li  Li3  1  0.157521  0.366879  0.610880  1
  V  V4  1  0.600467  0.133853  0.330852  1
  V  V5  1  0.313584  0.591614  0.131099  1
  V  V6  1  0.004868  0.014998  0.991670  1
  O  O7  1  0.866166  0.081674  0.246048  1
  O  O8  1  0.543521  0.424700  0.208386  1
  O  O9  1  0.334022  0.931219  0.137695  1
  O  O10  1  0.113557  0.301593  0.989584  1
  F  F11  1  0.932740  0.677811  0.010885  1
  F  F12  1  0.819673  0.382777  0.578421  1
  F  F13  1  0.613136  0.841163  0.459794  1
  F  F14  1  0.386915  0.189129  0.532306  1
  F  F15  1  0.682440  0.049520  0.853470  1
  F  F16  1  0.179866  0.597024  0.390015  1
  F  F17  1  0.404746  0.581998  0.841198  1
  F  F18  1  0.075740  0.893844  0.716151  1
