# generated using pymatgen
data_Li2Nb6NiO18
_symmetry_space_group_name_H-M   'P 1'
_cell_length_a   7.65656919
_cell_length_b   8.96129859
_cell_length_c   11.18404368
_cell_angle_alpha   104.79273935
_cell_angle_beta   96.51629847
_cell_angle_gamma   113.42358240
_symmetry_Int_Tables_number   1
_chemical_formula_structural   Li2Nb6NiO18
_chemical_formula_sum   'Li4 Nb12 Ni2 O36'
_cell_volume   660.50215724
_cell_formula_units_Z   2
loop_
 _symmetry_equiv_pos_site_id
 _symmetry_equiv_pos_as_xyz
  1  'x, y, z'
loop_
 _atom_site_type_symbol
 _atom_site_label
 _atom_site_symmetry_multiplicity
 _atom_site_fract_x
 _atom_site_fract_y
 _atom_site_fract_z
 _atom_site_occupancy
  Li  Li0  1  0.046862  0.673344  0.952058  1
  Li  Li1  1  0.544947  0.671312  0.448861  1
  Li  Li2  1  0.889815  0.345725  0.122846  1
  Li  Li3  1  0.384036  0.341763  0.615784  1
  Nb  Nb4  1  0.334037  0.645150  0.158491  1
  Nb  Nb5  1  0.505262  0.012719  0.507248  1
  Nb  Nb6  1  0.158424  0.330541  0.332651  1
  Nb  Nb7  1  0.321397  0.669197  0.655634  1
  Nb  Nb8  1  0.025694  0.006314  0.504937  1
  Nb  Nb9  1  0.511005  0.977379  0.994267  1
  Nb  Nb10  1  0.848851  0.683306  0.172395  1
  Nb  Nb11  1  0.655999  0.342674  0.320401  1
  Nb  Nb12  1  0.180154  0.354666  0.829004  1
  Nb  Nb13  1  0.814274  0.648231  0.656812  1
  Nb  Nb14  1  0.999141  0.009170  0.002772  1
  Nb  Nb15  1  0.670023  0.326589  0.844888  1
  Ni  Ni16  1  0.694531  0.997277  0.303812  1
  Ni  Ni17  1  0.196880  0.998372  0.805297  1
  O  O18  1  0.011588  0.863164  0.095340  1
  O  O19  1  0.339207  0.781720  0.020294  1
  O  O20  1  0.065720  0.594147  0.134992  1
  O  O21  1  0.042602  0.892777  0.627385  1
  O  O22  1  0.429775  0.883248  0.290729  1
  O  O23  1  0.318933  0.468238  0.004769  1
  O  O24  1  0.655694  0.780597  0.184631  1
  O  O25  1  0.368569  0.791843  0.522541  1
  O  O26  1  0.725636  0.922527  0.445332  1
  O  O27  1  0.056638  0.589093  0.627086  1
  O  O28  1  0.348488  0.538652  0.280902  1
  O  O29  1  0.371135  0.888063  0.792795  1
  O  O30  1  0.053149  0.213229  0.126809  1
  O  O31  1  0.977195  0.796980  0.341463  1
  O  O32  1  0.302199  0.457961  0.505395  1
  O  O33  1  0.634602  0.738774  0.657802  1
  O  O34  1  0.980094  0.108882  0.348735  1
  O  O35  1  0.696750  0.457878  0.190272  1
  O  O36  1  0.717620  0.913957  0.951232  1
  O  O37  1  0.388305  0.256642  0.295838  1
  O  O38  1  0.346717  0.530948  0.764529  1
  O  O39  1  0.724451  0.541885  0.463984  1
  O  O40  1  0.076787  0.210347  0.629742  1
  O  O41  1  0.001181  0.807299  0.830661  1
  O  O42  1  0.643658  0.104732  0.177789  1
  O  O43  1  0.965382  0.403656  0.322979  1
  O  O44  1  0.308316  0.096577  0.500139  1
  O  O45  1  0.674883  0.457660  0.701890  1
  O  O46  1  0.044608  0.111740  0.848856  1
  O  O47  1  0.376009  0.219765  0.795995  1
  O  O48  1  0.685628  0.182921  0.419769  1
  O  O49  1  0.738949  0.538551  0.966166  1
  O  O50  1  0.643046  0.136085  0.671626  1
  O  O51  1  0.297855  0.067720  0.979390  1
  O  O52  1  0.971461  0.409302  0.844612  1
  O  O53  1  0.687641  0.208715  0.957576  1
