# generated using pymatgen
data_LiFeSiO4
_symmetry_space_group_name_H-M   'P 1'
_cell_length_a   5.80308329
_cell_length_b   7.51740480
_cell_length_c   15.93063559
_cell_angle_alpha   90.00000000
_cell_angle_beta   90.00000000
_cell_angle_gamma   90.00000000
_symmetry_Int_Tables_number   1
_chemical_formula_structural   LiFeSiO4
_chemical_formula_sum   'Li8 Fe8 Si8 O32'
_cell_volume   694.96005709
_cell_formula_units_Z   8
loop_
 _symmetry_equiv_pos_site_id
 _symmetry_equiv_pos_as_xyz
  1  'x, y, z'
loop_
 _atom_site_type_symbol
 _atom_site_label
 _atom_site_symmetry_multiplicity
 _atom_site_fract_x
 _atom_site_fract_y
 _atom_site_fract_z
 _atom_site_occupancy
  Li  Li0  1  0.090696  0.252248  0.267566  1
  Li  Li1  1  0.590696  0.252248  0.232434  1
  Li  Li2  1  0.590696  0.247752  0.732434  1
  Li  Li3  1  0.090696  0.247752  0.767566  1
  Li  Li4  1  0.409304  0.752248  0.267566  1
  Li  Li5  1  0.909304  0.752248  0.232434  1
  Li  Li6  1  0.409304  0.747752  0.767566  1
  Li  Li7  1  0.909304  0.747752  0.732434  1
  Fe  Fe8  1  0.408348  0.181101  0.534058  1
  Fe  Fe9  1  0.908348  0.181101  0.965942  1
  Fe  Fe10  1  0.408348  0.318899  0.034058  1
  Fe  Fe11  1  0.908348  0.318899  0.465942  1
  Fe  Fe12  1  0.091652  0.681101  0.534058  1
  Fe  Fe13  1  0.591652  0.681101  0.965942  1
  Fe  Fe14  1  0.091652  0.818899  0.034058  1
  Fe  Fe15  1  0.591652  0.818899  0.465942  1
  Si  Si16  1  0.904190  0.042451  0.615564  1
  Si  Si17  1  0.404190  0.042451  0.884436  1
  Si  Si18  1  0.904190  0.457549  0.115564  1
  Si  Si19  1  0.404190  0.457549  0.384436  1
  Si  Si20  1  0.595810  0.542451  0.615564  1
  Si  Si21  1  0.095810  0.542451  0.884436  1
  Si  Si22  1  0.595810  0.957549  0.115564  1
  Si  Si23  1  0.095810  0.957549  0.384436  1
  O  O24  1  0.841560  0.982233  0.059407  1
  O  O25  1  0.341560  0.982233  0.440593  1
  O  O26  1  0.365173  0.129256  0.794791  1
  O  O27  1  0.865173  0.129256  0.705209  1
  O  O28  1  0.471351  0.153934  0.123190  1
  O  O29  1  0.971351  0.153934  0.376810  1
  O  O30  1  0.068084  0.171987  0.552541  1
  O  O31  1  0.568084  0.171987  0.947459  1
  O  O32  1  0.068084  0.328013  0.052541  1
  O  O33  1  0.568084  0.328013  0.447459  1
  O  O34  1  0.471351  0.346066  0.623190  1
  O  O35  1  0.971351  0.346066  0.876810  1
  O  O36  1  0.865173  0.370744  0.205209  1
  O  O37  1  0.365173  0.370744  0.294791  1
  O  O38  1  0.841560  0.517767  0.559407  1
  O  O39  1  0.341560  0.517767  0.940593  1
  O  O40  1  0.158440  0.482233  0.440593  1
  O  O41  1  0.658440  0.482233  0.059407  1
  O  O42  1  0.634827  0.629256  0.705209  1
  O  O43  1  0.134827  0.629256  0.794791  1
  O  O44  1  0.028649  0.653934  0.123190  1
  O  O45  1  0.528649  0.653934  0.376810  1
  O  O46  1  0.431916  0.671987  0.552541  1
  O  O47  1  0.931916  0.671987  0.947459  1
  O  O48  1  0.431916  0.828013  0.052541  1
  O  O49  1  0.931916  0.828013  0.447459  1
  O  O50  1  0.028649  0.846066  0.623190  1
  O  O51  1  0.528649  0.846066  0.876810  1
  O  O52  1  0.634827  0.870744  0.205209  1
  O  O53  1  0.134827  0.870744  0.294791  1
  O  O54  1  0.658440  0.017767  0.559407  1
  O  O55  1  0.158440  0.017767  0.940593  1
