# generated using pymatgen
data_FeOF
_symmetry_space_group_name_H-M   'P 1'
_cell_length_a   9.48813784
_cell_length_b   3.09240959
_cell_length_c   9.52111386
_cell_angle_alpha   90.00000000
_cell_angle_beta   90.54790263
_cell_angle_gamma   90.00000000
_symmetry_Int_Tables_number   1
_chemical_formula_structural   FeOF
_chemical_formula_sum   'Fe8 O8 F8'
_cell_volume   279.34821361
_cell_formula_units_Z   8
loop_
 _symmetry_equiv_pos_site_id
 _symmetry_equiv_pos_as_xyz
  1  'x, y, z'
loop_
 _atom_site_type_symbol
 _atom_site_label
 _atom_site_symmetry_multiplicity
 _atom_site_fract_x
 _atom_site_fract_y
 _atom_site_fract_z
 _atom_site_occupancy
  Fe  Fe0  1  0.980443  0.000000  0.002651  1
  Fe  Fe1  1  0.999667  0.000000  0.500200  1
  Fe  Fe2  1  0.743844  0.500000  0.777032  1
  Fe  Fe3  1  0.775490  0.500000  0.259455  1
  Fe  Fe4  1  0.479357  0.000000  0.504247  1
  Fe  Fe5  1  0.499508  0.000000  0.998034  1
  Fe  Fe6  1  0.240865  0.500000  0.725933  1
  Fe  Fe7  1  0.280162  0.500000  0.242570  1
  O  O8  1  0.905380  0.500000  0.100143  1
  O  O9  1  0.850137  0.000000  0.843750  1
  O  O10  1  0.854961  0.000000  0.357577  1
  O  O11  1  0.592142  0.500000  0.903038  1
  O  O12  1  0.401569  0.500000  0.600632  1
  O  O13  1  0.404560  0.500000  0.089356  1
  O  O14  1  0.349383  0.000000  0.345021  1
  O  O15  1  0.143535  0.000000  0.644453  1
  F  F16  1  0.899849  0.500000  0.597057  1
  F  F17  1  0.653195  0.000000  0.648383  1
  F  F18  1  0.657355  0.000000  0.164772  1
  F  F19  1  0.600629  0.500000  0.406899  1
  F  F20  1  0.335686  0.000000  0.840508  1
  F  F21  1  0.153931  0.000000  0.148115  1
  F  F22  1  0.100512  0.500000  0.901199  1
  F  F23  1  0.097840  0.500000  0.398977  1
