# generated using pymatgen
data_LiMnPH2O5
_symmetry_space_group_name_H-M   'P 1'
_cell_length_a   8.24251461
_cell_length_b   10.51854201
_cell_length_c   10.70064180
_cell_angle_alpha   95.64985863
_cell_angle_beta   107.89534140
_cell_angle_gamma   108.32162100
_symmetry_Int_Tables_number   1
_chemical_formula_structural   LiMnPH2O5
_chemical_formula_sum   'Li8 Mn8 P8 H16 O40'
_cell_volume   818.33169832
_cell_formula_units_Z   8
loop_
 _symmetry_equiv_pos_site_id
 _symmetry_equiv_pos_as_xyz
  1  'x, y, z'
loop_
 _atom_site_type_symbol
 _atom_site_label
 _atom_site_symmetry_multiplicity
 _atom_site_fract_x
 _atom_site_fract_y
 _atom_site_fract_z
 _atom_site_occupancy
  Li  Li0  1  0.743297  0.162434  0.066779  1
  Li  Li1  1  0.351181  0.242794  0.213679  1
  Li  Li2  1  0.846175  0.769190  0.467290  1
  Li  Li3  1  0.264950  0.662614  0.326381  1
  Li  Li4  1  0.749443  0.335877  0.680801  1
  Li  Li5  1  0.150394  0.236126  0.533227  1
  Li  Li6  1  0.853057  0.757015  0.966576  1
  Li  Li7  1  0.261048  0.660165  0.832380  1
  Mn  Mn8  1  0.997359  0.995309  0.253520  1
  Mn  Mn9  1  0.498063  0.992353  0.252756  1
  Mn  Mn10  1  0.999797  0.501933  0.496560  1
  Mn  Mn11  1  0.502327  0.500944  0.500913  1
  Mn  Mn12  1  0.002593  0.001799  0.750833  1
  Mn  Mn13  1  0.500267  0.000543  0.748248  1
  Mn  Mn14  1  0.996660  0.492022  0.003328  1
  Mn  Mn15  1  0.498893  0.495025  0.004275  1
  P  P16  1  0.580759  0.835321  0.004234  1
  P  P17  1  0.908023  0.662059  0.244518  1
  P  P18  1  0.084450  0.332894  0.257176  1
  P  P19  1  0.583695  0.834934  0.505399  1
  P  P20  1  0.412714  0.167435  0.495423  1
  P  P21  1  0.909957  0.660864  0.745337  1
  P  P22  1  0.085157  0.340412  0.752886  1
  P  P23  1  0.412178  0.160725  0.997757  1
  H  H24  1  0.179545  0.960505  0.050382  1
  H  H25  1  0.395337  0.678392  0.125271  1
  H  H26  1  0.129946  0.828257  0.125178  1
  H  H27  1  0.337978  0.536147  0.188925  1
  H  H28  1  0.680608  0.460390  0.301452  1
  H  H29  1  0.869206  0.172127  0.375923  1
  H  H30  1  0.629225  0.326238  0.374673  1
  H  H31  1  0.817708  0.035254  0.445098  1
  H  H32  1  0.182027  0.965535  0.557191  1
  H  H33  1  0.401557  0.681112  0.631597  1
  H  H34  1  0.133267  0.830940  0.630616  1
  H  H35  1  0.340772  0.540466  0.692606  1
  H  H36  1  0.658204  0.459941  0.808435  1
  H  H37  1  0.893104  0.174469  0.873465  1
  H  H38  1  0.605375  0.322728  0.877316  1
  H  H39  1  0.838481  0.034916  0.938274  1
  O  O40  1  0.772320  0.957084  0.055702  1
  O  O41  1  0.943837  0.350796  0.132392  1
  O  O42  1  0.495084  0.826888  0.114927  1
  O  O43  1  0.394487  0.298546  0.044548  1
  O  O44  1  0.716379  0.548207  0.196709  1
  O  O45  1  0.900157  0.801422  0.299109  1
  O  O46  1  0.318186  0.575017  0.106092  1
  O  O47  1  0.172411  0.930273  0.137320  1
  O  O48  1  0.533711  0.130075  0.125987  1
  O  O49  1  0.017867  0.326004  0.379278  1
  O  O50  1  0.985943  0.671748  0.127204  1
  O  O51  1  0.449998  0.856757  0.378841  1
  O  O52  1  0.814746  0.069355  0.358641  1
  O  O53  1  0.681998  0.428480  0.389625  1
  O  O54  1  0.108746  0.195550  0.218438  1
  O  O55  1  0.273666  0.454523  0.301742  1
  O  O56  1  0.593868  0.692180  0.461671  1
  O  O57  1  0.785331  0.938708  0.548432  1
  O  O58  1  0.475709  0.168849  0.371691  1
  O  O59  1  0.043411  0.628845  0.362506  1
  O  O60  1  0.960937  0.369407  0.625133  1
  O  O61  1  0.507228  0.834140  0.619797  1
  O  O62  1  0.212859  0.062011  0.455036  1
  O  O63  1  0.401706  0.309497  0.538771  1
  O  O64  1  0.725185  0.534244  0.690503  1
  O  O65  1  0.885227  0.794400  0.793079  1
  O  O66  1  0.327631  0.577936  0.609246  1
  O  O67  1  0.185293  0.933435  0.644630  1
  O  O68  1  0.550697  0.143541  0.616615  1
  O  O69  1  0.978710  0.327076  0.852483  1
  O  O70  1  0.993139  0.676250  0.630899  1
  O  O71  1  0.449713  0.852194  0.873710  1
  O  O72  1  0.825919  0.071106  0.854002  1
  O  O73  1  0.671720  0.426369  0.894346  1
  O  O74  1  0.112903  0.206759  0.709871  1
  O  O75  1  0.271800  0.465110  0.813941  1
  O  O76  1  0.610507  0.698482  0.970862  1
  O  O77  1  0.519634  0.170578  0.898779  1
  O  O78  1  0.040224  0.630189  0.868521  1
  O  O79  1  0.220477  0.045788  0.939204  1
