# generated using pymatgen
data_Li2(NiO2)3
_symmetry_space_group_name_H-M   'P 1'
_cell_length_a   4.94154536
_cell_length_b   4.94154536
_cell_length_c   9.79242820
_cell_angle_alpha   89.60848996
_cell_angle_beta   90.39151004
_cell_angle_gamma   120.91216443
_symmetry_Int_Tables_number   1
_chemical_formula_structural   Li2(NiO2)3
_chemical_formula_sum   'Li4 Ni6 O12'
_cell_volume   205.14810800
_cell_formula_units_Z   2
loop_
 _symmetry_equiv_pos_site_id
 _symmetry_equiv_pos_as_xyz
  1  'x, y, z'
loop_
 _atom_site_type_symbol
 _atom_site_label
 _atom_site_symmetry_multiplicity
 _atom_site_fract_x
 _atom_site_fract_y
 _atom_site_fract_z
 _atom_site_occupancy
  Li  Li0  1  0.205518  0.346587  0.497352  1
  Li  Li1  1  0.983334  0.460182  0.996272  1
  Li  Li2  1  0.653413  0.794482  0.997352  1
  Li  Li3  1  0.539818  0.016666  0.496272  1
  Ni  Ni4  1  0.298673  0.416580  0.755013  1
  Ni  Ni5  1  0.252757  0.034488  0.244805  1
  Ni  Ni6  1  0.965512  0.747243  0.744805  1
  Ni  Ni7  1  0.916596  0.367036  0.253274  1
  Ni  Ni8  1  0.632964  0.083404  0.753274  1
  Ni  Ni9  1  0.583420  0.701327  0.255013  1
  O  O10  1  0.667042  0.424731  0.854786  1
  O  O11  1  0.575269  0.332958  0.354786  1
  O  O12  1  0.301063  0.088968  0.651065  1
  O  O13  1  0.243609  0.394706  0.146339  1
  O  O14  1  0.952323  0.080162  0.853695  1
  O  O15  1  0.911032  0.698937  0.151065  1
  O  O16  1  0.938451  0.395510  0.643032  1
  O  O17  1  0.919838  0.047677  0.353695  1
  O  O18  1  0.605294  0.756391  0.646339  1
  O  O19  1  0.604490  0.061549  0.143032  1
  O  O20  1  0.316785  0.742438  0.858037  1
  O  O21  1  0.257562  0.683215  0.358037  1
