# generated using pymatgen
data_LiVP2HO8
_symmetry_space_group_name_H-M   'P 1'
_cell_length_a   7.46057732
_cell_length_b   7.98248753
_cell_length_c   9.74457806
_cell_angle_alpha   90.14067829
_cell_angle_beta   104.78890720
_cell_angle_gamma   90.09077803
_symmetry_Int_Tables_number   1
_chemical_formula_structural   LiVP2HO8
_chemical_formula_sum   'Li4 V4 P8 H4 O32'
_cell_volume   561.10047093
_cell_formula_units_Z   4
loop_
 _symmetry_equiv_pos_site_id
 _symmetry_equiv_pos_as_xyz
  1  'x, y, z'
loop_
 _atom_site_type_symbol
 _atom_site_label
 _atom_site_symmetry_multiplicity
 _atom_site_fract_x
 _atom_site_fract_y
 _atom_site_fract_z
 _atom_site_occupancy
  Li  Li0  1  0.652063  0.629604  0.052925  1
  Li  Li1  1  0.144625  0.869527  0.290002  1
  Li  Li2  1  0.854505  0.127791  0.704948  1
  Li  Li3  1  0.351588  0.369029  0.950060  1
  V  V4  1  0.006799  0.488165  0.254978  1
  V  V5  1  0.497312  0.000202  0.500985  1
  V  V6  1  0.997268  0.508813  0.746124  1
  V  V7  1  0.498438  0.999736  0.999306  1
  P  P8  1  0.265106  0.653944  0.063289  1
  P  P9  1  0.230690  0.148813  0.181834  1
  P  P10  1  0.760598  0.849228  0.312083  1
  P  P11  1  0.734142  0.347761  0.437272  1
  P  P12  1  0.268653  0.648394  0.565150  1
  P  P13  1  0.233313  0.147873  0.687918  1
  P  P14  1  0.765996  0.846182  0.816909  1
  P  P15  1  0.737576  0.343662  0.937335  1
  H  H16  1  0.513636  0.487219  0.270158  1
  H  H17  1  0.988864  0.993144  0.485181  1
  H  H18  1  0.492345  0.508365  0.740517  1
  H  H19  1  0.994599  0.994286  0.991637  1
  O  O20  1  0.846648  0.446203  0.071264  1
  O  O21  1  0.315604  0.829036  0.020610  1
  O  O22  1  0.357710  0.173402  0.078075  1
  O  O23  1  0.440504  0.549987  0.121285  1
  O  O24  1  0.650973  0.948522  0.180444  1
  O  O25  1  0.808998  0.676300  0.261123  1
  O  O26  1  0.059299  0.042187  0.120446  1
  O  O27  1  0.140086  0.668698  0.168037  1
  O  O28  1  0.859831  0.327891  0.335268  1
  O  O29  1  0.947232  0.939520  0.379251  1
  O  O30  1  0.179758  0.325247  0.223881  1
  O  O31  1  0.340614  0.050921  0.314396  1
  O  O32  1  0.554016  0.445193  0.373914  1
  O  O33  1  0.639009  0.842202  0.418657  1
  O  O34  1  0.685043  0.177251  0.493307  1
  O  O35  1  0.849467  0.444384  0.571280  1
  O  O36  1  0.156053  0.549744  0.430396  1
  O  O37  1  0.315784  0.818775  0.506907  1
  O  O38  1  0.362341  0.154968  0.584108  1
  O  O39  1  0.447240  0.553888  0.634256  1
  O  O40  1  0.658444  0.946559  0.686205  1
  O  O41  1  0.820225  0.671762  0.774817  1
  O  O42  1  0.052086  0.060402  0.618623  1
  O  O43  1  0.137091  0.670826  0.662882  1
  O  O44  1  0.862514  0.327422  0.832929  1
  O  O45  1  0.939970  0.953949  0.877511  1
  O  O46  1  0.195457  0.323760  0.741448  1
  O  O47  1  0.348348  0.049202  0.820066  1
  O  O48  1  0.561734  0.447839  0.878379  1
  O  O49  1  0.642766  0.823690  0.922759  1
  O  O50  1  0.683393  0.169678  0.979806  1
  O  O51  1  0.153642  0.553157  0.929056  1
