# generated using pymatgen
data_Cr3Sb(PO4)6
_symmetry_space_group_name_H-M   'P 1'
_cell_length_a   8.81707086
_cell_length_b   8.81707086
_cell_length_c   8.81707086
_cell_angle_alpha   58.27678405
_cell_angle_beta   58.27678405
_cell_angle_gamma   58.27678405
_symmetry_Int_Tables_number   1
_chemical_formula_structural   Cr3Sb(PO4)6
_chemical_formula_sum   'Cr3 Sb1 P6 O24'
_cell_volume   465.55326054
_cell_formula_units_Z   1
loop_
 _symmetry_equiv_pos_site_id
 _symmetry_equiv_pos_as_xyz
  1  'x, y, z'
loop_
 _atom_site_type_symbol
 _atom_site_label
 _atom_site_symmetry_multiplicity
 _atom_site_fract_x
 _atom_site_fract_y
 _atom_site_fract_z
 _atom_site_occupancy
  Cr  Cr0  1  0.856871  0.856871  0.856871  1
  Cr  Cr1  1  0.643860  0.643860  0.643860  1
  Cr  Cr2  1  0.357908  0.357908  0.357908  1
  Sb  Sb3  1  0.142900  0.142900  0.142900  1
  P  P4  1  0.250868  0.539259  0.963865  1
  P  P5  1  0.963865  0.250868  0.539259  1
  P  P6  1  0.539259  0.963865  0.250868  1
  P  P7  1  0.468082  0.034047  0.747387  1
  P  P8  1  0.034047  0.747387  0.468082  1
  P  P9  1  0.747387  0.468082  0.034047  1
  O  O10  1  0.720187  0.493596  0.862820  1
  O  O11  1  0.493596  0.862820  0.720187  1
  O  O12  1  0.077401  0.719949  0.936370  1
  O  O13  1  0.862820  0.720187  0.493596  1
  O  O14  1  0.424048  0.565922  0.782029  1
  O  O15  1  0.228282  0.365501  0.981265  1
  O  O16  1  0.936370  0.077401  0.719949  1
  O  O17  1  0.782029  0.424048  0.565922  1
  O  O18  1  0.565922  0.782029  0.424048  1
  O  O19  1  0.634633  0.008127  0.781733  1
  O  O20  1  0.280887  0.056744  0.922897  1
  O  O21  1  0.008127  0.781733  0.634633  1
  O  O22  1  0.981265  0.228282  0.365501  1
  O  O23  1  0.719949  0.936370  0.077401  1
  O  O24  1  0.365501  0.981265  0.228282  1
  O  O25  1  0.439805  0.215217  0.575203  1
  O  O26  1  0.215217  0.575203  0.439805  1
  O  O27  1  0.056744  0.922897  0.280887  1
  O  O28  1  0.781733  0.634633  0.008127  1
  O  O29  1  0.575203  0.439805  0.215217  1
  O  O30  1  0.137306  0.277969  0.507063  1
  O  O31  1  0.922897  0.280887  0.056744  1
  O  O32  1  0.507063  0.137306  0.277969  1
  O  O33  1  0.277969  0.507063  0.137306  1
