# generated using pymatgen
data_Li2VOF3
_symmetry_space_group_name_H-M   'P 1'
_cell_length_a   5.71533424
_cell_length_b   5.71533424
_cell_length_c   5.22754406
_cell_angle_alpha   89.79269887
_cell_angle_beta   90.20730113
_cell_angle_gamma   118.18164111
_symmetry_Int_Tables_number   1
_chemical_formula_structural   Li2VOF3
_chemical_formula_sum   'Li4 V2 O2 F6'
_cell_volume   150.51409281
_cell_formula_units_Z   2
loop_
 _symmetry_equiv_pos_site_id
 _symmetry_equiv_pos_as_xyz
  1  'x, y, z'
loop_
 _atom_site_type_symbol
 _atom_site_label
 _atom_site_symmetry_multiplicity
 _atom_site_fract_x
 _atom_site_fract_y
 _atom_site_fract_z
 _atom_site_occupancy
  Li  Li0  1  0.653677  0.040599  0.495589  1
  Li  Li1  1  0.937568  0.347186  0.982179  1
  Li  Li2  1  0.040599  0.653677  0.504411  1
  Li  Li3  1  0.347186  0.937568  0.017821  1
  V  V4  1  0.386143  0.386143  0.500000  1
  V  V5  1  0.647002  0.647002  0.000000  1
  O  O6  1  0.705489  0.487131  0.307820  1
  O  O7  1  0.487131  0.705489  0.692180  1
  F  F8  1  0.265999  0.004700  0.366002  1
  F  F9  1  0.002660  0.728333  0.863114  1
  F  F10  1  0.523924  0.269588  0.823599  1
  F  F11  1  0.269588  0.523924  0.176401  1
  F  F12  1  0.004700  0.265999  0.633998  1
  F  F13  1  0.728333  0.002660  0.136886  1
