# generated using pymatgen
data_LiFe2(PO4)2
_symmetry_space_group_name_H-M   'P 1'
_cell_length_a   8.29921579
_cell_length_b   5.25453488
_cell_length_c   8.56422557
_cell_angle_alpha   90.00000000
_cell_angle_beta   106.88056174
_cell_angle_gamma   90.00000000
_symmetry_Int_Tables_number   1
_chemical_formula_structural   LiFe2(PO4)2
_chemical_formula_sum   'Li2 Fe4 P4 O16'
_cell_volume   357.38103644
_cell_formula_units_Z   2
loop_
 _symmetry_equiv_pos_site_id
 _symmetry_equiv_pos_as_xyz
  1  'x, y, z'
loop_
 _atom_site_type_symbol
 _atom_site_label
 _atom_site_symmetry_multiplicity
 _atom_site_fract_x
 _atom_site_fract_y
 _atom_site_fract_z
 _atom_site_occupancy
  Li  Li0  1  0.500331  0.332094  0.717882  1
  Li  Li1  1  0.500331  0.667906  0.217882  1
  Fe  Fe2  1  0.122352  0.316330  0.785198  1
  Fe  Fe3  1  0.651384  0.829545  0.616655  1
  Fe  Fe4  1  0.122352  0.683670  0.285198  1
  Fe  Fe5  1  0.651384  0.170455  0.116655  1
  P  P6  1  0.747325  0.672971  0.990796  1
  P  P7  1  0.263539  0.811168  0.663854  1
  P  P8  1  0.747325  0.327029  0.490796  1
  P  P9  1  0.263539  0.188832  0.163854  1
  O  O10  1  0.680944  0.400012  0.939254  1
  O  O11  1  0.204761  0.656761  0.792393  1
  O  O12  1  0.782874  0.816058  0.849839  1
  O  O13  1  0.286809  0.098230  0.720488  1
  O  O14  1  0.428428  0.696607  0.649853  1
  O  O15  1  0.126657  0.797744  0.496175  1
  O  O16  1  0.616459  0.193280  0.561550  1
  O  O17  1  0.916088  0.339186  0.631609  1
  O  O18  1  0.680944  0.599988  0.439254  1
  O  O19  1  0.204761  0.343239  0.292393  1
  O  O20  1  0.782874  0.183942  0.349839  1
  O  O21  1  0.286809  0.901770  0.220488  1
  O  O22  1  0.428428  0.303393  0.149853  1
  O  O23  1  0.126657  0.202256  0.996175  1
  O  O24  1  0.616459  0.806720  0.061550  1
  O  O25  1  0.916088  0.660814  0.131609  1
