# generated using pymatgen
data_Fe21O23
_symmetry_space_group_name_H-M   'P 1'
_cell_length_a   6.89823262
_cell_length_b   8.11798601
_cell_length_c   9.75420372
_cell_angle_alpha   83.08563512
_cell_angle_beta   73.55589134
_cell_angle_gamma   64.97870543
_symmetry_Int_Tables_number   1
_chemical_formula_structural   Fe21O23
_chemical_formula_sum   'Fe21 O23'
_cell_volume   474.72321494
_cell_formula_units_Z   1
loop_
 _symmetry_equiv_pos_site_id
 _symmetry_equiv_pos_as_xyz
  1  'x, y, z'
loop_
 _atom_site_type_symbol
 _atom_site_label
 _atom_site_symmetry_multiplicity
 _atom_site_fract_x
 _atom_site_fract_y
 _atom_site_fract_z
 _atom_site_occupancy
  Fe  Fe0  1  0.127570  0.297825  0.039951  1
  Fe  Fe1  1  0.257281  0.618272  0.081103  1
  Fe  Fe2  1  0.375724  0.917304  0.129639  1
  Fe  Fe3  1  0.526485  0.218603  0.175481  1
  Fe  Fe4  1  0.641683  0.522548  0.226066  1
  Fe  Fe5  1  0.790192  0.827374  0.248716  1
  Fe  Fe6  1  0.907189  0.130042  0.296637  1
  Fe  Fe7  1  0.056494  0.429204  0.353354  1
  Fe  Fe8  1  0.180789  0.730777  0.396114  1
  Fe  Fe9  1  0.311833  0.046307  0.434916  1
  Fe  Fe10  1  0.564800  0.646033  0.520418  1
  Fe  Fe11  1  0.688861  0.966199  0.560688  1
  Fe  Fe12  1  0.810575  0.263619  0.603400  1
  Fe  Fe13  1  0.962453  0.557821  0.650512  1
  Fe  Fe14  1  0.089190  0.873357  0.703704  1
  Fe  Fe15  1  0.217670  0.176595  0.737518  1
  Fe  Fe16  1  0.349765  0.472023  0.776634  1
  Fe  Fe17  1  0.469450  0.784832  0.828923  1
  Fe  Fe18  1  0.615545  0.086810  0.874065  1
  Fe  Fe19  1  0.747852  0.383307  0.915331  1
  Fe  Fe20  1  0.873006  0.699888  0.959313  1
  O  O21  1  0.571566  0.648112  0.020849  1
  O  O22  1  0.668717  0.964754  0.065773  1
  O  O23  1  0.821148  0.266176  0.124333  1
  O  O24  1  0.966968  0.556938  0.154872  1
  O  O25  1  0.089659  0.874154  0.211923  1
  O  O26  1  0.197074  0.184074  0.246618  1
  O  O27  1  0.330347  0.479825  0.272924  1
  O  O28  1  0.477626  0.790319  0.326939  1
  O  O29  1  0.635444  0.073722  0.364333  1
  O  O30  1  0.771666  0.383050  0.403380  1
  O  O31  1  0.871997  0.679408  0.450889  1
  O  O32  1  0.002428  0.994919  0.500162  1
  O  O33  1  0.119209  0.303558  0.540797  1
  O  O34  1  0.246576  0.635689  0.598423  1
  O  O35  1  0.374862  0.915042  0.635134  1
  O  O36  1  0.525357  0.201424  0.693219  1
  O  O37  1  0.649588  0.528867  0.719592  1
  O  O38  1  0.789095  0.834853  0.758266  1
  O  O39  1  0.905653  0.128239  0.792215  1
  O  O40  1  0.040991  0.434606  0.847428  1
  O  O41  1  0.170188  0.735361  0.881882  1
  O  O42  1  0.329750  0.049774  0.928745  1
  O  O43  1  0.444901  0.340570  0.970561  1
