# generated using pymatgen
data_Na4Bi2C4SO16
_symmetry_space_group_name_H-M   'P 1'
_cell_length_a   10.61164783
_cell_length_b   10.52422438
_cell_length_c   10.19810647
_cell_angle_alpha   61.58215229
_cell_angle_beta   60.72171202
_cell_angle_gamma   57.69613569
_symmetry_Int_Tables_number   1
_chemical_formula_structural   Na4Bi2C4SO16
_chemical_formula_sum   'Na8 Bi4 C8 S2 O32'
_cell_volume   803.33005991
_cell_formula_units_Z   2
loop_
 _symmetry_equiv_pos_site_id
 _symmetry_equiv_pos_as_xyz
  1  'x, y, z'
loop_
 _atom_site_type_symbol
 _atom_site_label
 _atom_site_symmetry_multiplicity
 _atom_site_fract_x
 _atom_site_fract_y
 _atom_site_fract_z
 _atom_site_occupancy
  Na  Na0  1  0.549762  0.950238  0.549762  1
  Na  Na1  1  0.951708  0.548292  0.548292  1
  Na  Na2  1  0.701708  0.298292  0.298292  1
  Na  Na3  1  0.299762  0.700238  0.299762  1
  Na  Na4  1  0.950238  0.549762  0.950238  1
  Na  Na5  1  0.548292  0.951708  0.951708  1
  Na  Na6  1  0.298292  0.701708  0.701708  1
  Na  Na7  1  0.700238  0.299762  0.700238  1
  Bi  Bi8  1  0.125000  0.125000  0.625000  1
  Bi  Bi9  1  0.125000  0.125000  0.125000  1
  Bi  Bi10  1  0.625000  0.125000  0.125000  1
  Bi  Bi11  1  0.125000  0.625000  0.125000  1
  C  C12  1  0.907198  0.912096  0.287084  1
  C  C13  1  0.337904  0.342802  0.356377  1
  C  C14  1  0.287084  0.893623  0.907198  1
  C  C15  1  0.893623  0.287084  0.912096  1
  C  C16  1  0.356377  0.962916  0.337904  1
  C  C17  1  0.962916  0.356377  0.342802  1
  C  C18  1  0.912096  0.907198  0.893623  1
  C  C19  1  0.342802  0.337904  0.962916  1
  S  S20  1  0.500000  0.500000  0.500000  1
  S  S21  1  0.750000  0.750000  0.750000  1
  O  O22  1  0.776463  0.921951  0.294683  1
  O  O23  1  0.567709  0.323871  0.553337  1
  O  O24  1  0.917308  0.034902  0.274615  1
  O  O25  1  0.215098  0.332692  0.476825  1
  O  O26  1  0.274615  0.773175  0.917308  1
  O  O27  1  0.472876  0.222100  0.347775  1
  O  O28  1  0.553337  0.555083  0.567709  1
  O  O29  1  0.323871  0.567709  0.555083  1
  O  O30  1  0.957248  0.347775  0.222100  1
  O  O31  1  0.773175  0.274615  0.034902  1
  O  O32  1  0.328049  0.473537  0.243098  1
  O  O33  1  0.555083  0.553337  0.323871  1
  O  O34  1  0.294683  0.006902  0.776463  1
  O  O35  1  0.006902  0.294683  0.921951  1
  O  O36  1  0.027900  0.777124  0.292752  1
  O  O37  1  0.347775  0.957248  0.472876  1
  O  O38  1  0.902225  0.292752  0.777124  1
  O  O39  1  0.222100  0.472876  0.957248  1
  O  O40  1  0.243098  0.955317  0.328049  1
  O  O41  1  0.955317  0.243098  0.473537  1
  O  O42  1  0.694917  0.696663  0.926129  1
  O  O43  1  0.921951  0.776463  0.006902  1
  O  O44  1  0.476825  0.975385  0.215098  1
  O  O45  1  0.292752  0.902225  0.027900  1
  O  O46  1  0.926129  0.682291  0.694917  1
  O  O47  1  0.696663  0.694917  0.682291  1
  O  O48  1  0.777124  0.027900  0.902225  1
  O  O49  1  0.975385  0.476825  0.332692  1
  O  O50  1  0.034902  0.917308  0.773175  1
  O  O51  1  0.332692  0.215098  0.975385  1
  O  O52  1  0.682291  0.926129  0.696663  1
  O  O53  1  0.473537  0.328049  0.955317  1
