# generated using pymatgen
data_Li4Cr3Co2Sb3O16
_symmetry_space_group_name_H-M   'P 1'
_cell_length_a   6.09590913
_cell_length_b   6.09590913
_cell_length_c   9.85675970
_cell_angle_alpha   89.66128517
_cell_angle_beta   90.33871483
_cell_angle_gamma   119.63826155
_symmetry_Int_Tables_number   1
_chemical_formula_structural   Li4Cr3Co2Sb3O16
_chemical_formula_sum   'Li4 Cr3 Co2 Sb3 O16'
_cell_volume   318.34875382
_cell_formula_units_Z   1
loop_
 _symmetry_equiv_pos_site_id
 _symmetry_equiv_pos_as_xyz
  1  'x, y, z'
loop_
 _atom_site_type_symbol
 _atom_site_label
 _atom_site_symmetry_multiplicity
 _atom_site_fract_x
 _atom_site_fract_y
 _atom_site_fract_z
 _atom_site_occupancy
  Li  Li0  1  0.329266  0.670734  0.900128  1
  Li  Li1  1  0.990324  0.009676  0.005672  1
  Li  Li2  1  0.988816  0.011184  0.490593  1
  Li  Li3  1  0.664157  0.335843  0.372889  1
  Cr  Cr4  1  0.662861  0.830479  0.215167  1
  Cr  Cr5  1  0.169521  0.337139  0.215167  1
  Cr  Cr6  1  0.832192  0.167808  0.715840  1
  Co  Co7  1  0.346405  0.653595  0.475943  1
  Co  Co8  1  0.673092  0.326908  0.017916  1
  Sb  Sb9  1  0.170430  0.829570  0.215244  1
  Sb  Sb10  1  0.832366  0.662071  0.715710  1
  Sb  Sb11  1  0.337929  0.167634  0.715710  1
  O  O12  1  0.689322  0.837876  0.606276  1
  O  O13  1  0.482861  0.517139  0.331184  1
  O  O14  1  0.332936  0.667064  0.105310  1
  O  O15  1  0.001700  0.998300  0.311503  1
  O  O16  1  0.000376  0.999624  0.819715  1
  O  O17  1  0.162124  0.310678  0.606276  1
  O  O18  1  0.480850  0.966109  0.334366  1
  O  O19  1  0.033891  0.519150  0.334366  1
  O  O20  1  0.840990  0.159010  0.106145  1
  O  O21  1  0.155809  0.844191  0.602668  1
  O  O22  1  0.968120  0.487233  0.828201  1
  O  O23  1  0.512767  0.031880  0.828201  1
  O  O24  1  0.667038  0.332962  0.603046  1
  O  O25  1  0.848133  0.685198  0.101754  1
  O  O26  1  0.513297  0.486703  0.830854  1
  O  O27  1  0.314802  0.151867  0.101754  1
