# generated using pymatgen
data_Li6Ag3F10
_symmetry_space_group_name_H-M   'P 1'
_cell_length_a   5.56233901
_cell_length_b   9.20392093
_cell_length_c   19.81348327
_cell_angle_alpha   90.00000000
_cell_angle_beta   90.00000000
_cell_angle_gamma   90.00000000
_symmetry_Int_Tables_number   1
_chemical_formula_structural   Li6Ag3F10
_chemical_formula_sum   'Li24 Ag12 F40'
_cell_volume   1014.35778343
_cell_formula_units_Z   4
loop_
 _symmetry_equiv_pos_site_id
 _symmetry_equiv_pos_as_xyz
  1  'x, y, z'
loop_
 _atom_site_type_symbol
 _atom_site_label
 _atom_site_symmetry_multiplicity
 _atom_site_fract_x
 _atom_site_fract_y
 _atom_site_fract_z
 _atom_site_occupancy
  Li  Li0  1  0.763870  0.276460  0.017494  1
  Li  Li1  1  0.623370  0.012861  0.044728  1
  Li  Li2  1  0.172467  0.455400  0.105361  1
  Li  Li3  1  0.631987  0.269692  0.147072  1
  Li  Li4  1  0.244555  0.726862  0.202300  1
  Li  Li5  1  0.812520  0.579713  0.234074  1
  Li  Li6  1  0.312520  0.079713  0.265926  1
  Li  Li7  1  0.744555  0.226862  0.297700  1
  Li  Li8  1  0.131987  0.769692  0.352928  1
  Li  Li9  1  0.672467  0.955400  0.394639  1
  Li  Li10  1  0.123370  0.512861  0.455272  1
  Li  Li11  1  0.263870  0.776460  0.482506  1
  Li  Li12  1  0.763870  0.223540  0.517494  1
  Li  Li13  1  0.623370  0.487139  0.544728  1
  Li  Li14  1  0.172467  0.044600  0.605361  1
  Li  Li15  1  0.631987  0.230308  0.647072  1
  Li  Li16  1  0.244555  0.773138  0.702300  1
  Li  Li17  1  0.812520  0.920287  0.734074  1
  Li  Li18  1  0.312520  0.420287  0.765926  1
  Li  Li19  1  0.744555  0.273138  0.797700  1
  Li  Li20  1  0.131987  0.730308  0.852928  1
  Li  Li21  1  0.672467  0.544600  0.894639  1
  Li  Li22  1  0.123370  0.987139  0.955272  1
  Li  Li23  1  0.263870  0.723540  0.982506  1
  Ag  Ag24  1  0.679055  0.599322  0.079598  1
  Ag  Ag25  1  0.144866  0.075421  0.103375  1
  Ag  Ag26  1  0.800672  0.917331  0.225864  1
  Ag  Ag27  1  0.300672  0.417331  0.274136  1
  Ag  Ag28  1  0.644866  0.575421  0.396625  1
  Ag  Ag29  1  0.179055  0.099322  0.420402  1
  Ag  Ag30  1  0.679055  0.900678  0.579598  1
  Ag  Ag31  1  0.144866  0.424579  0.603375  1
  Ag  Ag32  1  0.800672  0.582669  0.725864  1
  Ag  Ag33  1  0.300672  0.082669  0.774136  1
  Ag  Ag34  1  0.644866  0.924579  0.896625  1
  Ag  Ag35  1  0.179055  0.400678  0.920402  1
  F  F36  1  0.359163  0.907664  0.015084  1
  F  F37  1  0.326787  0.552712  0.030898  1
  F  F38  1  0.482628  0.199011  0.066036  1
  F  F39  1  0.932237  0.306591  0.101162  1
  F  F40  1  0.800428  0.934293  0.115352  1
  F  F41  1  0.993915  0.609224  0.148079  1
  F  F42  1  0.429586  0.433270  0.168100  1
  F  F43  1  0.210066  0.933952  0.203810  1
  F  F44  1  0.589120  0.148724  0.220147  1
  F  F45  1  0.569733  0.716907  0.226713  1
  F  F46  1  0.069733  0.216907  0.273287  1
  F  F47  1  0.089120  0.648724  0.279853  1
  F  F48  1  0.710066  0.433952  0.296190  1
  F  F49  1  0.929586  0.933270  0.331900  1
  F  F50  1  0.493915  0.109224  0.351921  1
  F  F51  1  0.300428  0.434293  0.384648  1
  F  F52  1  0.432237  0.806591  0.398838  1
  F  F53  1  0.982628  0.699011  0.433964  1
  F  F54  1  0.826787  0.052712  0.469102  1
  F  F55  1  0.859163  0.407664  0.484916  1
  F  F56  1  0.359163  0.592336  0.515084  1
  F  F57  1  0.326787  0.947288  0.530898  1
  F  F58  1  0.482628  0.300989  0.566036  1
  F  F59  1  0.932237  0.193409  0.601162  1
  F  F60  1  0.800428  0.565707  0.615352  1
  F  F61  1  0.993915  0.890776  0.648079  1
  F  F62  1  0.429586  0.066730  0.668100  1
  F  F63  1  0.210066  0.566048  0.703810  1
  F  F64  1  0.589120  0.351276  0.720147  1
  F  F65  1  0.569733  0.783093  0.726713  1
  F  F66  1  0.069733  0.283093  0.773287  1
  F  F67  1  0.089120  0.851276  0.779853  1
  F  F68  1  0.710066  0.066048  0.796190  1
  F  F69  1  0.929586  0.566730  0.831900  1
  F  F70  1  0.493915  0.390776  0.851921  1
  F  F71  1  0.300428  0.065707  0.884648  1
  F  F72  1  0.432237  0.693409  0.898838  1
  F  F73  1  0.982628  0.800989  0.933964  1
  F  F74  1  0.826787  0.447288  0.969102  1
  F  F75  1  0.859163  0.092336  0.984916  1
