# generated using pymatgen
data_Ni7(PO4)6
_symmetry_space_group_name_H-M   'P 1'
_cell_length_a   8.77775660
_cell_length_b   8.77775660
_cell_length_c   6.57099621
_cell_angle_alpha   80.45165997
_cell_angle_beta   99.54834003
_cell_angle_gamma   71.58233354
_symmetry_Int_Tables_number   1
_chemical_formula_structural   Ni7(PO4)6
_chemical_formula_sum   'Ni7 P6 O24'
_cell_volume   460.62869161
_cell_formula_units_Z   1
loop_
 _symmetry_equiv_pos_site_id
 _symmetry_equiv_pos_as_xyz
  1  'x, y, z'
loop_
 _atom_site_type_symbol
 _atom_site_label
 _atom_site_symmetry_multiplicity
 _atom_site_fract_x
 _atom_site_fract_y
 _atom_site_fract_z
 _atom_site_occupancy
  Ni  Ni0  1  0.993689  0.643750  0.806582  1
  Ni  Ni1  1  0.000000  0.000000  0.000000  1
  Ni  Ni2  1  0.356250  0.006311  0.806582  1
  Ni  Ni3  1  0.643750  0.993689  0.193418  1
  Ni  Ni4  1  0.324595  0.324595  0.000000  1
  Ni  Ni5  1  0.675405  0.675405  0.000000  1
  Ni  Ni6  1  0.006311  0.356250  0.193418  1
  P  P7  1  0.276040  0.094186  0.294991  1
  P  P8  1  0.094186  0.276040  0.705009  1
  P  P9  1  0.667942  0.332058  0.925000  1
  P  P10  1  0.723960  0.905814  0.705009  1
  P  P11  1  0.905814  0.723960  0.294991  1
  P  P12  1  0.332058  0.667942  0.075000  1
  O  O13  1  0.749210  0.430972  0.058659  1
  O  O14  1  0.350161  0.977116  0.509425  1
  O  O15  1  0.607961  0.961246  0.865998  1
  O  O16  1  0.903630  0.891325  0.789153  1
  O  O17  1  0.569028  0.250790  0.058659  1
  O  O18  1  0.738572  0.728764  0.711352  1
  O  O19  1  0.249518  0.283528  0.281719  1
  O  O20  1  0.977116  0.350161  0.490575  1
  O  O21  1  0.038754  0.392039  0.865998  1
  O  O22  1  0.271236  0.261428  0.711352  1
  O  O23  1  0.022884  0.649839  0.509425  1
  O  O24  1  0.445983  0.554017  0.263616  1
  O  O25  1  0.384203  0.052439  0.127526  1
  O  O26  1  0.800831  0.199169  0.864503  1
  O  O27  1  0.096370  0.108675  0.210847  1
  O  O28  1  0.199169  0.800831  0.135497  1
  O  O29  1  0.241254  0.577960  0.930408  1
  O  O30  1  0.891325  0.903630  0.210847  1
  O  O31  1  0.108675  0.096370  0.789153  1
  O  O32  1  0.947561  0.615797  0.127526  1
  O  O33  1  0.649839  0.022884  0.490575  1
  O  O34  1  0.716472  0.750482  0.281719  1
  O  O35  1  0.554017  0.445983  0.736384  1
  O  O36  1  0.422040  0.758746  0.930408  1
