# generated using pymatgen
data_Li2FePCO7
_symmetry_space_group_name_H-M   'P 1'
_cell_length_a   5.06367887
_cell_length_b   6.42583763
_cell_length_c   8.50557586
_cell_angle_alpha   96.27594897
_cell_angle_beta   95.97306080
_cell_angle_gamma   92.85018061
_symmetry_Int_Tables_number   1
_chemical_formula_structural   Li2FePCO7
_chemical_formula_sum   'Li4 Fe2 P2 C2 O14'
_cell_volume   273.08243462
_cell_formula_units_Z   2
loop_
 _symmetry_equiv_pos_site_id
 _symmetry_equiv_pos_as_xyz
  1  'x, y, z'
loop_
 _atom_site_type_symbol
 _atom_site_label
 _atom_site_symmetry_multiplicity
 _atom_site_fract_x
 _atom_site_fract_y
 _atom_site_fract_z
 _atom_site_occupancy
  Li  Li0  1  0.307638  0.017949  0.721825  1
  Li  Li1  1  0.644803  0.574717  0.220675  1
  Li  Li2  1  0.801907  0.745079  0.889444  1
  Li  Li3  1  0.755097  0.139460  0.221938  1
  Fe  Fe4  1  0.217134  0.845616  0.315921  1
  Fe  Fe5  1  0.842093  0.359723  0.638941  1
  P  P6  1  0.297192  0.354025  0.399175  1
  P  P7  1  0.761132  0.847920  0.550723  1
  C  C8  1  0.333796  0.849700  0.030339  1
  C  C9  1  0.713912  0.335767  0.917688  1
  O  O10  1  0.087672  0.838758  0.061855  1
  O  O11  1  0.181285  0.415526  0.556302  1
  O  O12  1  0.141604  0.152157  0.310459  1
  O  O13  1  0.280419  0.533727  0.290431  1
  O  O14  1  0.410379  0.841837  0.893232  1
  O  O15  1  0.464260  0.899401  0.516139  1
  O  O16  1  0.552230  0.258843  0.793796  1
  O  O17  1  0.510903  0.865876  0.159483  1
  O  O18  1  0.600175  0.311451  0.427927  1
  O  O19  1  0.667323  0.330496  0.061889  1
  O  O20  1  0.778289  0.673262  0.661021  1
  O  O21  1  0.869047  0.773556  0.390035  1
  O  O22  1  0.933496  0.429206  0.881089  1
  O  O23  1  0.929502  0.044510  0.634838  1
