# generated using pymatgen
data_Li5Cr2Fe3(PO4)6
_symmetry_space_group_name_H-M   'P 1'
_cell_length_a   8.43117585
_cell_length_b   8.60434310
_cell_length_c   8.81815716
_cell_angle_alpha   60.94257814
_cell_angle_beta   61.57224084
_cell_angle_gamma   62.22003778
_symmetry_Int_Tables_number   1
_chemical_formula_structural   Li5Cr2Fe3(PO4)6
_chemical_formula_sum   'Li5 Cr2 Fe3 P6 O24'
_cell_volume   468.24979209
_cell_formula_units_Z   1
loop_
 _symmetry_equiv_pos_site_id
 _symmetry_equiv_pos_as_xyz
  1  'x, y, z'
loop_
 _atom_site_type_symbol
 _atom_site_label
 _atom_site_symmetry_multiplicity
 _atom_site_fract_x
 _atom_site_fract_y
 _atom_site_fract_z
 _atom_site_occupancy
  Li  Li0  1  0.246320  0.643724  0.856807  1
  Li  Li1  1  0.805479  0.330154  0.150022  1
  Li  Li2  1  0.336531  0.147823  0.818962  1
  Li  Li3  1  0.142575  0.814856  0.329921  1
  Li  Li4  1  0.153729  0.160379  0.169276  1
  Cr  Cr5  1  0.994570  0.004656  0.002579  1
  Cr  Cr6  1  0.505993  0.501277  0.494329  1
  Fe  Fe7  1  0.852521  0.859588  0.850386  1
  Fe  Fe8  1  0.647934  0.644555  0.643228  1
  Fe  Fe9  1  0.355162  0.344121  0.344212  1
  P  P10  1  0.943342  0.547141  0.249769  1
  P  P11  1  0.554902  0.241891  0.952308  1
  P  P12  1  0.248328  0.942936  0.544917  1
  P  P13  1  0.744728  0.044911  0.461415  1
  P  P14  1  0.446031  0.742341  0.034270  1
  P  P15  1  0.052258  0.464049  0.745951  1
  O  O16  1  0.896158  0.533917  0.666383  1
  O  O17  1  0.661008  0.895502  0.513604  1
  O  O18  1  0.948389  0.737858  0.084604  1
  O  O19  1  0.470278  0.674765  0.890072  1
  O  O20  1  0.962500  0.400017  0.189723  1
  O  O21  1  0.748331  0.576882  0.407166  1
  O  O22  1  0.753551  0.086953  0.933371  1
  O  O23  1  0.569539  0.409651  0.767456  1
  O  O24  1  0.803615  0.010614  0.617089  1
  O  O25  1  0.403446  0.743431  0.581092  1
  O  O26  1  0.907056  0.050886  0.275560  1
  O  O27  1  0.614683  0.802441  0.982546  1
  O  O28  1  0.399828  0.177042  0.982189  1
  O  O29  1  0.097207  0.921520  0.741415  1
  O  O30  1  0.595961  0.248031  0.423893  1
  O  O31  1  0.187944  0.965557  0.398014  1
  O  O32  1  0.424685  0.591034  0.230460  1
  O  O33  1  0.254699  0.905547  0.050743  1
  O  O34  1  0.255114  0.427897  0.597519  1
  O  O35  1  0.034092  0.610321  0.810921  1
  O  O36  1  0.516412  0.298543  0.111652  1
  O  O37  1  0.047387  0.271609  0.902902  1
  O  O38  1  0.310491  0.105986  0.501261  1
  O  O39  1  0.107224  0.496592  0.315011  1
