# generated using pymatgen
data_V2(OF)3
_symmetry_space_group_name_H-M   'P 1'
_cell_length_a   5.17339478
_cell_length_b   5.22743234
_cell_length_c   13.23778602
_cell_angle_alpha   91.15347053
_cell_angle_beta   90.23209938
_cell_angle_gamma   119.53039883
_symmetry_Int_Tables_number   1
_chemical_formula_structural   V2(OF)3
_chemical_formula_sum   'V6 O9 F9'
_cell_volume   311.38786478
_cell_formula_units_Z   3
loop_
 _symmetry_equiv_pos_site_id
 _symmetry_equiv_pos_as_xyz
  1  'x, y, z'
loop_
 _atom_site_type_symbol
 _atom_site_label
 _atom_site_symmetry_multiplicity
 _atom_site_fract_x
 _atom_site_fract_y
 _atom_site_fract_z
 _atom_site_occupancy
  V  V0  1  0.995445  0.973016  0.487231  1
  V  V1  1  0.952683  0.981874  0.998633  1
  V  V2  1  0.641402  0.324894  0.157540  1
  V  V3  1  0.376269  0.675306  0.329240  1
  V  V4  1  0.716216  0.347390  0.665385  1
  V  V5  1  0.333205  0.639971  0.824939  1
  O  O6  1  0.349279  0.249791  0.082883  1
  O  O7  1  0.977135  0.573421  0.752072  1
  O  O8  1  0.775988  0.090773  0.082178  1
  O  O9  1  0.083625  0.759817  0.417133  1
  O  O10  1  0.410505  0.428060  0.750027  1
  O  O11  1  0.579249  0.581736  0.254123  1
  O  O12  1  0.910247  0.252943  0.588475  1
  O  O13  1  0.670541  0.762478  0.919017  1
  O  O14  1  0.662445  0.907917  0.419173  1
  F  F15  1  0.998468  0.420532  0.254115  1
  F  F16  1  0.407967  0.997874  0.251143  1
  F  F17  1  0.325420  0.086180  0.587110  1
  F  F18  1  0.074297  0.334174  0.920102  1
  F  F19  1  0.256885  0.338512  0.420571  1
  F  F20  1  0.580233  0.008665  0.750520  1
  F  F21  1  0.245890  0.923509  0.920485  1
  F  F22  1  0.740732  0.665879  0.584939  1
  F  F23  1  0.935873  0.675286  0.082965  1
