# generated using pymatgen
data_Hf2N2O
_symmetry_space_group_name_H-M   'P 1'
_cell_length_a   8.70763685
_cell_length_b   8.73026582
_cell_length_c   8.73707941
_cell_angle_alpha   109.57657838
_cell_angle_beta   109.32722371
_cell_angle_gamma   109.35068335
_symmetry_Int_Tables_number   1
_chemical_formula_structural   Hf2N2O
_chemical_formula_sum   'Hf16 N16 O8'
_cell_volume   512.29546479
_cell_formula_units_Z   8
loop_
 _symmetry_equiv_pos_site_id
 _symmetry_equiv_pos_as_xyz
  1  'x, y, z'
loop_
 _atom_site_type_symbol
 _atom_site_label
 _atom_site_symmetry_multiplicity
 _atom_site_fract_x
 _atom_site_fract_y
 _atom_site_fract_z
 _atom_site_occupancy
  Hf  Hf0  1  0.492309  0.503700  0.490885  1
  Hf  Hf1  1  0.535368  0.242795  0.787747  1
  Hf  Hf2  1  0.744584  0.789316  0.038957  1
  Hf  Hf3  1  0.745040  0.280217  0.530486  1
  Hf  Hf4  1  0.962922  0.748547  0.706730  1
  Hf  Hf5  1  0.781476  0.532479  0.254504  1
  Hf  Hf6  1  0.511421  0.004011  0.999442  1
  Hf  Hf7  1  0.292492  0.032484  0.249663  1
  Hf  Hf8  1  0.992000  0.983919  0.500561  1
  Hf  Hf9  1  0.006608  0.497853  0.010046  1
  Hf  Hf10  1  0.714661  0.972063  0.748769  1
  Hf  Hf11  1  0.222481  0.471857  0.755182  1
  Hf  Hf12  1  0.040655  0.257543  0.285412  1
  Hf  Hf13  1  0.249303  0.221185  0.971851  1
  Hf  Hf14  1  0.251280  0.714539  0.464072  1
  Hf  Hf15  1  0.463459  0.750154  0.214643  1
  N  N16  1  0.261260  0.268047  0.227167  1
  N  N17  1  0.728980  0.488309  0.460987  1
  N  N18  1  0.770855  0.232222  0.759623  1
  N  N19  1  0.528311  0.273781  0.040416  1
  N  N20  1  0.732240  0.764458  0.272516  1
  N  N21  1  0.271198  0.508203  0.544200  1
  N  N22  1  0.466549  0.726861  0.952628  1
  N  N23  1  0.545973  0.039402  0.274047  1
  N  N24  1  0.221101  0.773403  0.234400  1
  N  N25  1  0.983849  0.451032  0.222166  1
  N  N26  1  0.774122  0.041735  0.033936  1
  N  N27  1  0.235543  0.463265  0.007001  1
  N  N28  1  0.968804  0.009497  0.740302  1
  N  N29  1  0.046621  0.773853  0.514923  1
  N  N30  1  0.452382  0.968204  0.727016  1
  N  N31  1  0.514869  0.737993  0.466663  1
  O  O32  1  0.737671  0.721197  0.774925  1
  O  O33  1  0.272630  0.240765  0.717101  1
  O  O34  1  0.483667  0.258706  0.535127  1
  O  O35  1  0.038096  0.995681  0.270455  1
  O  O36  1  0.019323  0.549421  0.771671  1
  O  O37  1  0.955247  0.228511  0.493196  1
  O  O38  1  0.762662  0.538653  0.984667  1
  O  O39  1  0.221988  0.944140  0.965917  1
