# generated using pymatgen
data_Fe3O5F
_symmetry_space_group_name_H-M   'P 1'
_cell_length_a   5.54805085
_cell_length_b   5.54805085
_cell_length_c   7.36891411
_cell_angle_alpha   70.55607292
_cell_angle_beta   109.44392708
_cell_angle_gamma   109.31975595
_symmetry_Int_Tables_number   1
_chemical_formula_structural   Fe3O5F
_chemical_formula_sum   'Fe6 O10 F2'
_cell_volume   195.41481391
_cell_formula_units_Z   2
loop_
 _symmetry_equiv_pos_site_id
 _symmetry_equiv_pos_as_xyz
  1  'x, y, z'
loop_
 _atom_site_type_symbol
 _atom_site_label
 _atom_site_symmetry_multiplicity
 _atom_site_fract_x
 _atom_site_fract_y
 _atom_site_fract_z
 _atom_site_occupancy
  Fe  Fe0  1  0.675856  0.324144  0.152970  1
  Fe  Fe1  1  0.326145  0.673855  0.336720  1
  Fe  Fe2  1  0.656178  0.343822  0.676729  1
  Fe  Fe3  1  0.330751  0.669249  0.837172  1
  Fe  Fe4  1  0.004002  0.995998  0.490235  1
  Fe  Fe5  1  0.004010  0.995990  0.007920  1
  O  O6  1  0.644405  0.968284  0.333827  1
  O  O7  1  0.968738  0.642514  0.670601  1
  O  O8  1  0.229580  0.770420  0.046152  1
  O  O9  1  0.777407  0.222593  0.960750  1
  O  O10  1  0.428605  0.571395  0.622191  1
  O  O11  1  0.101860  0.898140  0.299374  1
  O  O12  1  0.357486  0.031262  0.670601  1
  O  O13  1  0.031716  0.355595  0.333827  1
  O  O14  1  0.691621  0.692177  0.996108  1
  O  O15  1  0.307823  0.308379  0.996108  1
  F  F16  1  0.894786  0.105214  0.697369  1
  F  F17  1  0.569032  0.430968  0.371347  1
