# generated using pymatgen
data_Li4V2Cr3Fe3O16
_symmetry_space_group_name_H-M   'P 1'
_cell_length_a   5.94516432
_cell_length_b   5.94516432
_cell_length_c   9.44971511
_cell_angle_alpha   89.35284530
_cell_angle_beta   90.64715470
_cell_angle_gamma   120.03069645
_symmetry_Int_Tables_number   1
_chemical_formula_structural   Li4V2Cr3Fe3O16
_chemical_formula_sum   'Li4 V2 Cr3 Fe3 O16'
_cell_volume   289.13836936
_cell_formula_units_Z   1
loop_
 _symmetry_equiv_pos_site_id
 _symmetry_equiv_pos_as_xyz
  1  'x, y, z'
loop_
 _atom_site_type_symbol
 _atom_site_label
 _atom_site_symmetry_multiplicity
 _atom_site_fract_x
 _atom_site_fract_y
 _atom_site_fract_z
 _atom_site_occupancy
  Li  Li0  1  0.332160  0.667840  0.099776  1
  Li  Li1  1  0.000849  0.999151  0.008702  1
  Li  Li2  1  0.000464  0.999536  0.507324  1
  Li  Li3  1  0.666272  0.333728  0.602528  1
  V  V4  1  0.333790  0.666210  0.505684  1
  V  V5  1  0.669056  0.330944  0.003585  1
  Cr  Cr6  1  0.171535  0.344117  0.785788  1
  Cr  Cr7  1  0.655883  0.828465  0.785788  1
  Cr  Cr8  1  0.827294  0.172706  0.286850  1
  Fe  Fe9  1  0.172765  0.827235  0.779544  1
  Fe  Fe10  1  0.346335  0.176594  0.281140  1
  Fe  Fe11  1  0.823406  0.653665  0.281140  1
  O  O12  1  0.173159  0.349650  0.409844  1
  O  O13  1  0.476872  0.523128  0.657632  1
  O  O14  1  0.330719  0.669281  0.894356  1
  O  O15  1  0.000736  0.999264  0.696164  1
  O  O16  1  0.000452  0.999548  0.198517  1
  O  O17  1  0.650350  0.826841  0.409844  1
  O  O18  1  0.043083  0.517230  0.652563  1
  O  O19  1  0.482770  0.956917  0.652563  1
  O  O20  1  0.826696  0.173304  0.906993  1
  O  O21  1  0.176295  0.823705  0.413727  1
  O  O22  1  0.526063  0.045423  0.153154  1
  O  O23  1  0.954577  0.473937  0.153154  1
  O  O24  1  0.664625  0.335375  0.395618  1
  O  O25  1  0.351353  0.177153  0.910716  1
  O  O26  1  0.519949  0.480051  0.148730  1
  O  O27  1  0.822847  0.648647  0.910716  1
