# generated using pymatgen
data_Dy3TaO7
_symmetry_space_group_name_H-M   'P 1'
_cell_length_a   6.46554481
_cell_length_b   6.46554481
_cell_length_c   7.52877805
_cell_angle_alpha   90.00000000
_cell_angle_beta   90.00000000
_cell_angle_gamma   110.32870358
_symmetry_Int_Tables_number   1
_chemical_formula_structural   Dy3TaO7
_chemical_formula_sum   'Dy6 Ta2 O14'
_cell_volume   295.12473859
_cell_formula_units_Z   2
loop_
 _symmetry_equiv_pos_site_id
 _symmetry_equiv_pos_as_xyz
  1  'x, y, z'
loop_
 _atom_site_type_symbol
 _atom_site_label
 _atom_site_symmetry_multiplicity
 _atom_site_fract_x
 _atom_site_fract_y
 _atom_site_fract_z
 _atom_site_occupancy
  Dy  Dy0  1  0.514683  0.053759  0.250000  1
  Dy  Dy1  1  0.946241  0.485317  0.750000  1
  Dy  Dy2  1  0.000000  0.000000  0.000000  1
  Dy  Dy3  1  0.000000  0.000000  0.500000  1
  Dy  Dy4  1  0.053759  0.514683  0.250000  1
  Dy  Dy5  1  0.485317  0.946241  0.750000  1
  Ta  Ta6  1  0.500000  0.500000  0.000000  1
  Ta  Ta7  1  0.500000  0.500000  0.500000  1
  O  O8  1  0.886579  0.151988  0.250000  1
  O  O9  1  0.848012  0.113421  0.750000  1
  O  O10  1  0.822400  0.563841  0.034035  1
  O  O11  1  0.822400  0.563841  0.465965  1
  O  O12  1  0.436159  0.177600  0.965965  1
  O  O13  1  0.436159  0.177600  0.534035  1
  O  O14  1  0.576904  0.576904  0.750000  1
  O  O15  1  0.423096  0.423096  0.250000  1
  O  O16  1  0.563841  0.822400  0.034035  1
  O  O17  1  0.177600  0.436159  0.534035  1
  O  O18  1  0.563841  0.822400  0.465965  1
  O  O19  1  0.177600  0.436159  0.965965  1
  O  O20  1  0.113421  0.848012  0.750000  1
  O  O21  1  0.151988  0.886579  0.250000  1
