# generated using pymatgen
data_Li3Cr4(PO4)6
_symmetry_space_group_name_H-M   'P 1'
_cell_length_a   8.46594743
_cell_length_b   8.48913852
_cell_length_c   8.54932351
_cell_angle_alpha   60.65896018
_cell_angle_beta   60.50983563
_cell_angle_gamma   61.00534460
_symmetry_Int_Tables_number   1
_chemical_formula_structural   Li3Cr4(PO4)6
_chemical_formula_sum   'Li3 Cr4 P6 O24'
_cell_volume   441.55446123
_cell_formula_units_Z   1
loop_
 _symmetry_equiv_pos_site_id
 _symmetry_equiv_pos_as_xyz
  1  'x, y, z'
loop_
 _atom_site_type_symbol
 _atom_site_label
 _atom_site_symmetry_multiplicity
 _atom_site_fract_x
 _atom_site_fract_y
 _atom_site_fract_z
 _atom_site_occupancy
  Li  Li0  1  0.511540  0.001448  0.985461  1
  Li  Li1  1  0.250713  0.137583  0.347569  1
  Li  Li2  1  0.992622  0.510001  0.498089  1
  Cr  Cr3  1  0.639734  0.138524  0.144224  1
  Cr  Cr4  1  0.859705  0.364030  0.352885  1
  Cr  Cr5  1  0.135903  0.634872  0.648640  1
  Cr  Cr6  1  0.363458  0.860083  0.856077  1
  P  P7  1  0.251937  0.457161  0.034602  1
  P  P8  1  0.960408  0.038077  0.751539  1
  P  P9  1  0.543216  0.745997  0.466101  1
  P  P10  1  0.451208  0.251270  0.537082  1
  P  P11  1  0.044891  0.957653  0.250654  1
  P  P12  1  0.747664  0.545007  0.963726  1
  O  O13  1  0.812269  0.523077  0.114296  1
  O  O14  1  0.685627  0.381185  0.013736  1
  O  O15  1  0.875373  0.995989  0.203903  1
  O  O16  1  0.951685  0.225953  0.577730  1
  O  O17  1  0.410023  0.258147  0.062420  1
  O  O18  1  0.738463  0.587556  0.441197  1
  O  O19  1  0.538195  0.916332  0.276950  1
  O  O20  1  0.992329  0.871956  0.699783  1
  O  O21  1  0.238978  0.932646  0.082121  1
  O  O22  1  0.621344  0.310393  0.479163  1
  O  O23  1  0.908719  0.560001  0.764495  1
  O  O24  1  0.463559  0.191549  0.386925  1
  O  O25  1  0.518966  0.811860  0.618993  1
  O  O26  1  0.094668  0.437868  0.235828  1
  O  O27  1  0.376309  0.681989  0.521345  1
  O  O28  1  0.767025  0.061353  0.914117  1
  O  O29  1  0.029581  0.120086  0.296563  1
  O  O30  1  0.441919  0.091184  0.733361  1
  O  O31  1  0.257244  0.416106  0.561717  1
  O  O32  1  0.588093  0.741454  0.938850  1
  O  O33  1  0.065567  0.764218  0.413848  1
  O  O34  1  0.128624  0.005767  0.798847  1
  O  O35  1  0.317196  0.619975  0.983491  1
  O  O36  1  0.185226  0.480847  0.885529  1
