# generated using pymatgen
data_Li4Mn5Nb3O16
_symmetry_space_group_name_H-M   'P 1'
_cell_length_a   6.13794471
_cell_length_b   6.15643420
_cell_length_c   9.96394542
_cell_angle_alpha   90.33403382
_cell_angle_beta   90.11516574
_cell_angle_gamma   119.55653133
_symmetry_Int_Tables_number   1
_chemical_formula_structural   Li4Mn5Nb3O16
_chemical_formula_sum   'Li4 Mn5 Nb3 O16'
_cell_volume   327.50911033
_cell_formula_units_Z   1
loop_
 _symmetry_equiv_pos_site_id
 _symmetry_equiv_pos_as_xyz
  1  'x, y, z'
loop_
 _atom_site_type_symbol
 _atom_site_label
 _atom_site_symmetry_multiplicity
 _atom_site_fract_x
 _atom_site_fract_y
 _atom_site_fract_z
 _atom_site_occupancy
  Li  Li0  1  0.344342  0.675597  0.895143  1
  Li  Li1  1  0.002749  0.000251  0.004757  1
  Li  Li2  1  0.019630  0.006168  0.495388  1
  Li  Li3  1  0.674701  0.341159  0.376488  1
  Mn  Mn4  1  0.163352  0.829013  0.212354  1
  Mn  Mn5  1  0.310168  0.654441  0.490830  1
  Mn  Mn6  1  0.164847  0.334491  0.215766  1
  Mn  Mn7  1  0.334548  0.167651  0.717868  1
  Mn  Mn8  1  0.651375  0.324518  0.011111  1
  Nb  Nb9  1  0.651213  0.829074  0.218700  1
  Nb  Nb10  1  0.826811  0.659515  0.714932  1
  Nb  Nb11  1  0.828275  0.167219  0.714806  1
  O  O12  1  0.146178  0.835370  0.608158  1
  O  O13  1  0.043186  0.527559  0.320903  1
  O  O14  1  0.357539  0.698870  0.096291  1
  O  O15  1  0.984317  0.968296  0.316092  1
  O  O16  1  0.973638  0.987220  0.821128  1
  O  O17  1  0.143588  0.307848  0.605033  1
  O  O18  1  0.492315  0.970689  0.333178  1
  O  O19  1  0.478617  0.513714  0.326872  1
  O  O20  1  0.302420  0.146120  0.113133  1
  O  O21  1  0.683469  0.841416  0.602945  1
  O  O22  1  0.530489  0.493900  0.831169  1
  O  O23  1  0.533825  0.041250  0.831371  1
  O  O24  1  0.696808  0.349807  0.597241  1
  O  O25  1  0.837802  0.683109  0.102616  1
  O  O26  1  0.976637  0.487880  0.823967  1
  O  O27  1  0.847158  0.158157  0.109596  1
