# generated using pymatgen
data_Mn2OF3
_symmetry_space_group_name_H-M   'P 1'
_cell_length_a   5.04456371
_cell_length_b   6.19543595
_cell_length_c   10.51617566
_cell_angle_alpha   90.00000000
_cell_angle_beta   90.00000000
_cell_angle_gamma   90.00000000
_symmetry_Int_Tables_number   1
_chemical_formula_structural   Mn2OF3
_chemical_formula_sum   'Mn8 O4 F12'
_cell_volume   328.66489158
_cell_formula_units_Z   4
loop_
 _symmetry_equiv_pos_site_id
 _symmetry_equiv_pos_as_xyz
  1  'x, y, z'
loop_
 _atom_site_type_symbol
 _atom_site_label
 _atom_site_symmetry_multiplicity
 _atom_site_fract_x
 _atom_site_fract_y
 _atom_site_fract_z
 _atom_site_occupancy
  Mn  Mn0  1  0.000000  0.000000  0.000000  1
  Mn  Mn1  1  0.000000  0.500000  0.000000  1
  Mn  Mn2  1  0.514993  0.250000  0.237133  1
  Mn  Mn3  1  0.014993  0.750000  0.262867  1
  Mn  Mn4  1  0.500000  0.000000  0.500000  1
  Mn  Mn5  1  0.500000  0.500000  0.500000  1
  Mn  Mn6  1  0.985007  0.250000  0.737133  1
  Mn  Mn7  1  0.485007  0.750000  0.762867  1
  O  O8  1  0.150533  0.750000  0.076266  1
  O  O9  1  0.650533  0.250000  0.423734  1
  O  O10  1  0.349467  0.750000  0.576266  1
  O  O11  1  0.849467  0.250000  0.923734  1
  F  F12  1  0.245708  0.250000  0.089656  1
  F  F13  1  0.774190  0.012591  0.159921  1
  F  F14  1  0.774190  0.487409  0.159921  1
  F  F15  1  0.274190  0.512591  0.340079  1
  F  F16  1  0.274190  0.987409  0.340079  1
  F  F17  1  0.745708  0.750000  0.410344  1
  F  F18  1  0.254292  0.250000  0.589656  1
  F  F19  1  0.725810  0.012591  0.659921  1
  F  F20  1  0.725810  0.487409  0.659921  1
  F  F21  1  0.225810  0.512591  0.840079  1
  F  F22  1  0.225810  0.987409  0.840079  1
  F  F23  1  0.754292  0.750000  0.910344  1
