# generated using pymatgen
data_P4WO13
_symmetry_space_group_name_H-M   'P 1'
_cell_length_a   7.11059546
_cell_length_b   8.32642067
_cell_length_c   17.48517277
_cell_angle_alpha   90.00000000
_cell_angle_beta   90.00000000
_cell_angle_gamma   90.00000000
_symmetry_Int_Tables_number   1
_chemical_formula_structural   P4WO13
_chemical_formula_sum   'P16 W4 O52'
_cell_volume   1035.22379960
_cell_formula_units_Z   4
loop_
 _symmetry_equiv_pos_site_id
 _symmetry_equiv_pos_as_xyz
  1  'x, y, z'
loop_
 _atom_site_type_symbol
 _atom_site_label
 _atom_site_symmetry_multiplicity
 _atom_site_fract_x
 _atom_site_fract_y
 _atom_site_fract_z
 _atom_site_occupancy
  P  P0  1  0.569643  0.319738  0.421690  1
  P  P1  1  0.585883  0.900956  0.924686  1
  P  P2  1  0.600105  0.351323  0.168374  1
  P  P3  1  0.601629  0.902016  0.661031  1
  P  P4  1  0.898371  0.097984  0.161031  1
  P  P5  1  0.899895  0.648677  0.668374  1
  P  P6  1  0.914117  0.099044  0.424686  1
  P  P7  1  0.930357  0.680262  0.921690  1
  P  P8  1  0.069643  0.180262  0.578310  1
  P  P9  1  0.085883  0.599044  0.075314  1
  P  P10  1  0.100105  0.148677  0.831626  1
  P  P11  1  0.101629  0.597984  0.338969  1
  P  P12  1  0.398371  0.402016  0.838969  1
  P  P13  1  0.399895  0.851323  0.331626  1
  P  P14  1  0.414117  0.400956  0.575314  1
  P  P15  1  0.430357  0.819738  0.078310  1
  W  W16  1  0.732958  0.275599  0.714409  1
  W  W17  1  0.767042  0.724401  0.214409  1
  W  W18  1  0.232958  0.224401  0.285591  1
  W  W19  1  0.267042  0.775599  0.785591  1
  O  O20  1  0.492557  0.289073  0.507100  1
  O  O21  1  0.530333  0.332730  0.645428  1
  O  O22  1  0.574597  0.797871  0.281797  1
  O  O23  1  0.582380  0.331070  0.801032  1
  O  O24  1  0.571183  0.370071  0.086519  1
  O  O25  1  0.606585  0.769678  0.127093  1
  O  O26  1  0.580281  0.074530  0.933083  1
  O  O27  1  0.607552  0.928220  0.578903  1
  O  O28  1  0.637898  0.057419  0.712022  1
  O  O29  1  0.670028  0.507314  0.212568  1
  O  O30  1  0.653208  0.475161  0.403742  1
  O  O31  1  0.705363  0.167141  0.410611  1
  O  O32  1  0.747505  0.219629  0.198621  1
  O  O33  1  0.752495  0.780371  0.698621  1
  O  O34  1  0.794637  0.832859  0.910611  1
  O  O35  1  0.846792  0.524839  0.903742  1
  O  O36  1  0.829972  0.492686  0.712568  1
  O  O37  1  0.862102  0.942581  0.212022  1
  O  O38  1  0.892448  0.071780  0.078903  1
  O  O39  1  0.919719  0.925470  0.433083  1
  O  O40  1  0.893415  0.230322  0.627093  1
  O  O41  1  0.928817  0.629929  0.586519  1
  O  O42  1  0.917620  0.668930  0.301032  1
  O  O43  1  0.925403  0.202129  0.781797  1
  O  O44  1  0.969667  0.667270  0.145428  1
  O  O45  1  0.007443  0.710927  0.007100  1
  O  O46  1  0.992557  0.210927  0.492900  1
  O  O47  1  0.030333  0.167270  0.354572  1
  O  O48  1  0.074597  0.702129  0.718203  1
  O  O49  1  0.082380  0.168930  0.198968  1
  O  O50  1  0.071183  0.129929  0.913481  1
  O  O51  1  0.106585  0.730322  0.872907  1
  O  O52  1  0.080281  0.425470  0.066917  1
  O  O53  1  0.107552  0.571780  0.421097  1
  O  O54  1  0.137898  0.442581  0.287978  1
  O  O55  1  0.170028  0.992686  0.787432  1
  O  O56  1  0.153208  0.024839  0.596258  1
  O  O57  1  0.205363  0.332859  0.589389  1
  O  O58  1  0.247505  0.280371  0.801379  1
  O  O59  1  0.252495  0.719629  0.301379  1
  O  O60  1  0.294637  0.667141  0.089389  1
  O  O61  1  0.346792  0.975161  0.096258  1
  O  O62  1  0.329972  0.007314  0.287432  1
  O  O63  1  0.362102  0.557419  0.787978  1
  O  O64  1  0.392448  0.428220  0.921097  1
  O  O65  1  0.419719  0.574530  0.566917  1
  O  O66  1  0.393415  0.269678  0.372907  1
  O  O67  1  0.428817  0.870071  0.413481  1
  O  O68  1  0.417620  0.831070  0.698968  1
  O  O69  1  0.425403  0.297871  0.218203  1
  O  O70  1  0.469667  0.832730  0.854572  1
  O  O71  1  0.507443  0.789073  0.992900  1
