# generated using pymatgen
data_VP2H8(NO4)2
_symmetry_space_group_name_H-M   'P 1'
_cell_length_a   8.42574928
_cell_length_b   8.42574928
_cell_length_c   5.81121841
_cell_angle_alpha   90.00000000
_cell_angle_beta   90.00000000
_cell_angle_gamma   90.00000000
_symmetry_Int_Tables_number   1
_chemical_formula_structural   VP2H8(NO4)2
_chemical_formula_sum   'V2 P4 H16 N4 O16'
_cell_volume   412.55728680
_cell_formula_units_Z   2
loop_
 _symmetry_equiv_pos_site_id
 _symmetry_equiv_pos_as_xyz
  1  'x, y, z'
loop_
 _atom_site_type_symbol
 _atom_site_label
 _atom_site_symmetry_multiplicity
 _atom_site_fract_x
 _atom_site_fract_y
 _atom_site_fract_z
 _atom_site_occupancy
  V  V0  1  0.500000  0.500000  0.096926  1
  V  V1  1  0.000000  0.000000  0.096926  1
  P  P2  1  0.871787  0.628213  0.111974  1
  P  P3  1  0.371787  0.871787  0.111974  1
  P  P4  1  0.628213  0.128213  0.111974  1
  P  P5  1  0.128213  0.371787  0.111974  1
  H  H6  1  0.098072  0.598072  0.694330  1
  H  H7  1  0.249123  0.608376  0.509149  1
  H  H8  1  0.237334  0.737334  0.730772  1
  H  H9  1  0.108376  0.749123  0.509149  1
  H  H10  1  0.608376  0.750877  0.509149  1
  H  H11  1  0.737334  0.762666  0.730772  1
  H  H12  1  0.749123  0.891624  0.509149  1
  H  H13  1  0.598072  0.901928  0.694330  1
  H  H14  1  0.401928  0.098072  0.694330  1
  H  H15  1  0.250877  0.108376  0.509149  1
  H  H16  1  0.262666  0.237334  0.730772  1
  H  H17  1  0.391624  0.249123  0.509149  1
  H  H18  1  0.891624  0.250877  0.509149  1
  H  H19  1  0.762666  0.262666  0.730772  1
  H  H20  1  0.750877  0.391624  0.509149  1
  H  H21  1  0.901928  0.401928  0.694330  1
  N  N22  1  0.173757  0.673757  0.610513  1
  N  N23  1  0.673757  0.826243  0.610513  1
  N  N24  1  0.326243  0.173757  0.610513  1
  N  N25  1  0.826243  0.326243  0.610513  1
  O  O26  1  0.500000  0.500000  0.379095  1
  O  O27  1  0.000000  0.500000  0.004345  1
  O  O28  1  0.715133  0.575936  0.996378  1
  O  O29  1  0.873106  0.626894  0.368947  1
  O  O30  1  0.424064  0.715133  0.996378  1
  O  O31  1  0.924064  0.784867  0.996378  1
  O  O32  1  0.373106  0.873106  0.368947  1
  O  O33  1  0.215133  0.924064  0.996378  1
  O  O34  1  0.000000  0.000000  0.379095  1
  O  O35  1  0.500000  0.000000  0.004345  1
  O  O36  1  0.784867  0.075936  0.996378  1
  O  O37  1  0.626894  0.126894  0.368947  1
  O  O38  1  0.075936  0.215133  0.996378  1
  O  O39  1  0.575936  0.284867  0.996378  1
  O  O40  1  0.126894  0.373106  0.368947  1
  O  O41  1  0.284867  0.424064  0.996378  1
