# generated using pymatgen
data_Yb2P4O13
_symmetry_space_group_name_H-M   'P 1'
_cell_length_a   6.89062673
_cell_length_b   6.89062673
_cell_length_c   13.13885571
_cell_angle_alpha   75.52266244
_cell_angle_beta   104.47733756
_cell_angle_gamma   120.66232924
_symmetry_Int_Tables_number   1
_chemical_formula_structural   Yb2P4O13
_chemical_formula_sum   'Yb4 P8 O26'
_cell_volume   513.93102082
_cell_formula_units_Z   2
loop_
 _symmetry_equiv_pos_site_id
 _symmetry_equiv_pos_as_xyz
  1  'x, y, z'
loop_
 _atom_site_type_symbol
 _atom_site_label
 _atom_site_symmetry_multiplicity
 _atom_site_fract_x
 _atom_site_fract_y
 _atom_site_fract_z
 _atom_site_occupancy
  Yb  Yb0  1  0.324932  0.679131  0.956050  1
  Yb  Yb1  1  0.679131  0.324932  0.543950  1
  Yb  Yb2  1  0.320869  0.675068  0.456050  1
  Yb  Yb3  1  0.675068  0.320869  0.043950  1
  P  P4  1  0.859388  0.834072  0.866199  1
  P  P5  1  0.165928  0.140612  0.366199  1
  P  P6  1  0.759442  0.222056  0.840380  1
  P  P7  1  0.222056  0.759442  0.659620  1
  P  P8  1  0.777944  0.240558  0.340380  1
  P  P9  1  0.240558  0.777944  0.159620  1
  P  P10  1  0.834072  0.859388  0.633801  1
  P  P11  1  0.140612  0.165928  0.133801  1
  O  O12  1  0.677875  0.674356  0.936651  1
  O  O13  1  0.095951  0.859985  0.901198  1
  O  O14  1  0.325644  0.322125  0.436651  1
  O  O15  1  0.089762  0.898058  0.655697  1
  O  O16  1  0.561312  0.071379  0.903533  1
  O  O17  1  0.928460  0.422063  0.902326  1
  O  O18  1  0.693264  0.301113  0.725300  1
  O  O19  1  0.140015  0.904049  0.401198  1
  O  O20  1  0.101942  0.910238  0.155697  1
  O  O21  1  0.301113  0.693264  0.774700  1
  O  O22  1  0.422063  0.928460  0.597674  1
  O  O23  1  0.071379  0.561312  0.596467  1
  O  O24  1  0.928621  0.438688  0.403533  1
  O  O25  1  0.577937  0.071540  0.402326  1
  O  O26  1  0.698887  0.306736  0.225300  1
  O  O27  1  0.898058  0.089762  0.844303  1
  O  O28  1  0.859985  0.095951  0.598802  1
  O  O29  1  0.306736  0.698887  0.274700  1
  O  O30  1  0.071540  0.577937  0.097674  1
  O  O31  1  0.438688  0.928621  0.096467  1
  O  O32  1  0.757002  0.757002  0.750000  1
  O  O33  1  0.910238  0.101942  0.344303  1
  O  O34  1  0.674356  0.677875  0.563349  1
  O  O35  1  0.904049  0.140015  0.098802  1
  O  O36  1  0.242998  0.242998  0.250000  1
  O  O37  1  0.322125  0.325644  0.063349  1
