# generated using pymatgen
data_CoH8SO8
_symmetry_space_group_name_H-M   'P 1'
_cell_length_a   6.01080862
_cell_length_b   13.66374337
_cell_length_c   9.91372430
_cell_angle_alpha   90.00000000
_cell_angle_beta   126.75789256
_cell_angle_gamma   90.00000000
_symmetry_Int_Tables_number   1
_chemical_formula_structural   CoH8SO8
_chemical_formula_sum   'Co4 H32 S4 O32'
_cell_volume   652.32626260
_cell_formula_units_Z   4
loop_
 _symmetry_equiv_pos_site_id
 _symmetry_equiv_pos_as_xyz
  1  'x, y, z'
loop_
 _atom_site_type_symbol
 _atom_site_label
 _atom_site_symmetry_multiplicity
 _atom_site_fract_x
 _atom_site_fract_y
 _atom_site_fract_z
 _atom_site_occupancy
  Co  Co0  1  0.151081  0.601543  0.719101  1
  Co  Co1  1  0.151081  0.898457  0.219101  1
  Co  Co2  1  0.848919  0.398457  0.280899  1
  Co  Co3  1  0.848919  0.101543  0.780899  1
  H  H4  1  0.109899  0.583175  0.973164  1
  H  H5  1  0.109899  0.916825  0.473164  1
  H  H6  1  0.890101  0.416825  0.026836  1
  H  H7  1  0.890101  0.083175  0.526836  1
  H  H8  1  0.872310  0.517294  0.822369  1
  H  H9  1  0.872310  0.982706  0.322369  1
  H  H10  1  0.127690  0.482706  0.177631  1
  H  H11  1  0.127690  0.017294  0.677631  1
  H  H12  1  0.463313  0.686666  0.649598  1
  H  H13  1  0.463313  0.813334  0.149598  1
  H  H14  1  0.536687  0.313334  0.350402  1
  H  H15  1  0.536687  0.186666  0.850402  1
  H  H16  1  0.361432  0.588315  0.543247  1
  H  H17  1  0.361432  0.911685  0.043247  1
  H  H18  1  0.638568  0.411685  0.456753  1
  H  H19  1  0.638568  0.088315  0.956753  1
  H  H20  1  0.646182  0.684857  0.948388  1
  H  H21  1  0.646182  0.815143  0.448388  1
  H  H22  1  0.353818  0.315143  0.051612  1
  H  H23  1  0.353818  0.184857  0.551612  1
  H  H24  1  0.627548  0.600196  0.053520  1
  H  H25  1  0.627548  0.899804  0.553520  1
  H  H26  1  0.372452  0.399804  0.946480  1
  H  H27  1  0.372452  0.100196  0.446480  1
  H  H28  1  0.975672  0.760815  0.782972  1
  H  H29  1  0.975672  0.739185  0.282972  1
  H  H30  1  0.024328  0.239185  0.217028  1
  H  H31  1  0.024328  0.260815  0.717028  1
  H  H32  1  0.148930  0.804733  0.722591  1
  H  H33  1  0.148930  0.695267  0.222591  1
  H  H34  1  0.851070  0.195267  0.277409  1
  H  H35  1  0.851070  0.304733  0.777409  1
  S  S36  1  0.624826  0.609010  0.321221  1
  S  S37  1  0.624826  0.890990  0.821221  1
  S  S38  1  0.375174  0.390990  0.678779  1
  S  S39  1  0.375174  0.109010  0.178779  1
  O  O40  1  0.749794  0.551288  0.252567  1
  O  O41  1  0.749794  0.948712  0.752567  1
  O  O42  1  0.250206  0.448712  0.747433  1
  O  O43  1  0.250206  0.051288  0.247433  1
  O  O44  1  0.741360  0.573243  0.494416  1
  O  O45  1  0.741360  0.926757  0.994416  1
  O  O46  1  0.258640  0.426757  0.505584  1
  O  O47  1  0.258640  0.073243  0.005584  1
  O  O48  1  0.315726  0.592967  0.211297  1
  O  O49  1  0.315726  0.907033  0.711297  1
  O  O50  1  0.684274  0.407033  0.788703  1
  O  O51  1  0.684274  0.092967  0.288703  1
  O  O52  1  0.682749  0.714269  0.319564  1
  O  O53  1  0.682749  0.785731  0.819564  1
  O  O54  1  0.317251  0.285731  0.680436  1
  O  O55  1  0.317251  0.214269  0.180436  1
  O  O56  1  0.983362  0.577601  0.849515  1
  O  O57  1  0.983362  0.922399  0.349515  1
  O  O58  1  0.016638  0.422399  0.150485  1
  O  O59  1  0.016638  0.077601  0.650485  1
  O  O60  1  0.303351  0.642794  0.580249  1
  O  O61  1  0.303351  0.857206  0.080249  1
  O  O62  1  0.696649  0.357206  0.419751  1
  O  O63  1  0.696649  0.142794  0.919751  1
  O  O64  1  0.549706  0.624219  0.938795  1
  O  O65  1  0.549706  0.875781  0.438795  1
  O  O66  1  0.450294  0.375781  0.061205  1
  O  O67  1  0.450294  0.124219  0.561205  1
  O  O68  1  0.037487  0.747764  0.712591  1
  O  O69  1  0.037487  0.752236  0.212591  1
  O  O70  1  0.962513  0.252236  0.287409  1
  O  O71  1  0.962513  0.247764  0.787409  1
