# generated using pymatgen
data_Li2Ti3VO8
_symmetry_space_group_name_H-M   'P 1'
_cell_length_a   8.48978980
_cell_length_b   8.48978980
_cell_length_c   8.48978980
_cell_angle_alpha   90.00000000
_cell_angle_beta   90.00000000
_cell_angle_gamma   90.00000000
_symmetry_Int_Tables_number   1
_chemical_formula_structural   Li2Ti3VO8
_chemical_formula_sum   'Li8 Ti12 V4 O32'
_cell_volume   611.91459703
_cell_formula_units_Z   4
loop_
 _symmetry_equiv_pos_site_id
 _symmetry_equiv_pos_as_xyz
  1  'x, y, z'
loop_
 _atom_site_type_symbol
 _atom_site_label
 _atom_site_symmetry_multiplicity
 _atom_site_fract_x
 _atom_site_fract_y
 _atom_site_fract_z
 _atom_site_occupancy
  Li  Li0  1  0.499073  0.499073  0.499073  1
  Li  Li1  1  0.750927  0.750927  0.750927  1
  Li  Li2  1  0.749073  0.249073  0.250927  1
  Li  Li3  1  0.000927  0.500927  0.999073  1
  Li  Li4  1  0.999073  0.000927  0.500927  1
  Li  Li5  1  0.250927  0.749073  0.249073  1
  Li  Li6  1  0.249073  0.250927  0.749073  1
  Li  Li7  1  0.500927  0.999073  0.000927  1
  Ti  Ti8  1  0.628044  0.621956  0.125000  1
  Ti  Ti9  1  0.625000  0.871956  0.378044  1
  Ti  Ti10  1  0.621956  0.125000  0.628044  1
  Ti  Ti11  1  0.878044  0.875000  0.128044  1
  Ti  Ti12  1  0.875000  0.128044  0.878044  1
  Ti  Ti13  1  0.871956  0.378044  0.625000  1
  Ti  Ti14  1  0.128044  0.878044  0.875000  1
  Ti  Ti15  1  0.125000  0.628044  0.621956  1
  Ti  Ti16  1  0.121956  0.375000  0.371956  1
  Ti  Ti17  1  0.378044  0.625000  0.871956  1
  Ti  Ti18  1  0.375000  0.371956  0.121956  1
  Ti  Ti19  1  0.371956  0.121956  0.375000  1
  V  V20  1  0.625000  0.375000  0.875000  1
  V  V21  1  0.875000  0.625000  0.375000  1
  V  V22  1  0.125000  0.125000  0.125000  1
  V  V23  1  0.375000  0.875000  0.625000  1
  O  O24  1  0.607501  0.624167  0.890444  1
  O  O25  1  0.609556  0.392499  0.124167  1
  O  O26  1  0.610571  0.110571  0.389429  1
  O  O27  1  0.625833  0.642499  0.359556  1
  O  O28  1  0.624167  0.890444  0.607501  1
  O  O29  1  0.639429  0.860571  0.139429  1
  O  O30  1  0.640444  0.125833  0.857501  1
  O  O31  1  0.642499  0.359556  0.625833  1
  O  O32  1  0.857501  0.640444  0.125833  1
  O  O33  1  0.859556  0.874167  0.357501  1
  O  O34  1  0.860571  0.139429  0.639429  1
  O  O35  1  0.875833  0.109556  0.107501  1
  O  O36  1  0.874167  0.357501  0.859556  1
  O  O37  1  0.889429  0.889429  0.889429  1
  O  O38  1  0.890444  0.607501  0.624167  1
  O  O39  1  0.892499  0.375833  0.390444  1
  O  O40  1  0.107501  0.875833  0.109556  1
  O  O41  1  0.109556  0.107501  0.875833  1
  O  O42  1  0.110571  0.389429  0.610571  1
  O  O43  1  0.125833  0.857501  0.640444  1
  O  O44  1  0.124167  0.609556  0.392499  1
  O  O45  1  0.139429  0.639429  0.860571  1
  O  O46  1  0.140444  0.374167  0.142499  1
  O  O47  1  0.142499  0.140444  0.374167  1
  O  O48  1  0.357501  0.859556  0.874167  1
  O  O49  1  0.359556  0.625833  0.642499  1
  O  O50  1  0.360571  0.360571  0.360571  1
  O  O51  1  0.375833  0.390444  0.892499  1
  O  O52  1  0.374167  0.142499  0.140444  1
  O  O53  1  0.389429  0.610571  0.110571  1
  O  O54  1  0.390444  0.892499  0.375833  1
  O  O55  1  0.392499  0.124167  0.609556  1
