# generated using pymatgen
data_Na5LiMn2P2(CO7)2
_symmetry_space_group_name_H-M   'P 1'
_cell_length_a   6.76701077
_cell_length_b   8.98329959
_cell_length_c   10.37511040
_cell_angle_alpha   90.03286898
_cell_angle_beta   90.34279779
_cell_angle_gamma   90.64055562
_symmetry_Int_Tables_number   1
_chemical_formula_structural   Na5LiMn2P2(CO7)2
_chemical_formula_sum   'Na10 Li2 Mn4 P4 C4 O28'
_cell_volume   630.65301232
_cell_formula_units_Z   2
loop_
 _symmetry_equiv_pos_site_id
 _symmetry_equiv_pos_as_xyz
  1  'x, y, z'
loop_
 _atom_site_type_symbol
 _atom_site_label
 _atom_site_symmetry_multiplicity
 _atom_site_fract_x
 _atom_site_fract_y
 _atom_site_fract_z
 _atom_site_occupancy
  Na  Na0  1  0.243941  0.917431  0.629037  1
  Na  Na1  1  0.247942  0.916382  0.130504  1
  Na  Na2  1  0.498365  0.742214  0.373705  1
  Na  Na3  1  0.000929  0.741642  0.873718  1
  Na  Na4  1  0.499028  0.740856  0.873314  1
  Na  Na5  1  0.501635  0.257786  0.626295  1
  Na  Na6  1  0.500972  0.259144  0.126686  1
  Na  Na7  1  0.999071  0.258358  0.126282  1
  Na  Na8  1  0.756059  0.082569  0.370963  1
  Na  Na9  1  0.752058  0.083618  0.869496  1
  Li  Li10  1  0.012129  0.729891  0.368914  1
  Li  Li11  1  0.987871  0.270109  0.631086  1
  Mn  Mn12  1  0.750188  0.638816  0.636843  1
  Mn  Mn13  1  0.752768  0.638064  0.141821  1
  Mn  Mn14  1  0.249812  0.361184  0.363157  1
  Mn  Mn15  1  0.247232  0.361936  0.858179  1
  P  P16  1  0.241630  0.587432  0.598553  1
  P  P17  1  0.250561  0.588291  0.103176  1
  P  P18  1  0.758370  0.412568  0.401447  1
  P  P19  1  0.749439  0.411709  0.896824  1
  C  C20  1  0.757907  0.944084  0.617257  1
  C  C21  1  0.751000  0.939354  0.118398  1
  C  C22  1  0.242093  0.055916  0.382743  1
  C  C23  1  0.249000  0.060646  0.881602  1
  O  O24  1  0.230799  0.911541  0.392392  1
  O  O25  1  0.252468  0.916576  0.892566  1
  O  O26  1  0.750562  0.880751  0.730331  1
  O  O27  1  0.752796  0.877239  0.231443  1
  O  O28  1  0.752798  0.860289  0.514708  1
  O  O29  1  0.752930  0.855684  0.015603  1
  O  O30  1  0.064862  0.681516  0.645246  1
  O  O31  1  0.432470  0.673219  0.640341  1
  O  O32  1  0.069128  0.680216  0.147517  1
  O  O33  1  0.436921  0.680568  0.143127  1
  O  O34  1  0.234361  0.577339  0.447697  1
  O  O35  1  0.765803  0.574032  0.346003  1
  O  O36  1  0.246217  0.571123  0.953031  1
  O  O37  1  0.749039  0.569349  0.836468  1
  O  O38  1  0.234197  0.425968  0.653997  1
  O  O39  1  0.765639  0.422661  0.552303  1
  O  O40  1  0.250961  0.430651  0.163532  1
  O  O41  1  0.753783  0.428877  0.046969  1
  O  O42  1  0.567530  0.326781  0.359659  1
  O  O43  1  0.935138  0.318484  0.354754  1
  O  O44  1  0.563079  0.319432  0.856873  1
  O  O45  1  0.930872  0.319784  0.852483  1
  O  O46  1  0.247202  0.139711  0.485292  1
  O  O47  1  0.247070  0.144316  0.984397  1
  O  O48  1  0.249438  0.119249  0.269669  1
  O  O49  1  0.247204  0.122761  0.768557  1
  O  O50  1  0.769201  0.088459  0.607608  1
  O  O51  1  0.747532  0.083424  0.107434  1
