# generated using pymatgen
data_LiMn3(FeO4)2
_symmetry_space_group_name_H-M   'P 1'
_cell_length_a   6.00053550
_cell_length_b   6.00053550
_cell_length_c   6.00053550
_cell_angle_alpha   60.67939998
_cell_angle_beta   60.67939998
_cell_angle_gamma   60.67939998
_symmetry_Int_Tables_number   1
_chemical_formula_structural   LiMn3(FeO4)2
_chemical_formula_sum   'Li1 Mn3 Fe2 O8'
_cell_volume   155.11897651
_cell_formula_units_Z   1
loop_
 _symmetry_equiv_pos_site_id
 _symmetry_equiv_pos_as_xyz
  1  'x, y, z'
loop_
 _atom_site_type_symbol
 _atom_site_label
 _atom_site_symmetry_multiplicity
 _atom_site_fract_x
 _atom_site_fract_y
 _atom_site_fract_z
 _atom_site_occupancy
  Li  Li0  1  0.876903  0.876903  0.876903  1
  Mn  Mn1  1  0.506077  0.506077  0.989080  1
  Mn  Mn2  1  0.989080  0.506077  0.506077  1
  Mn  Mn3  1  0.506077  0.989080  0.506077  1
  Fe  Fe4  1  0.502644  0.502644  0.502644  1
  Fe  Fe5  1  0.121197  0.121197  0.121197  1
  O  O6  1  0.294157  0.737890  0.737890  1
  O  O7  1  0.749014  0.749014  0.749014  1
  O  O8  1  0.737890  0.294157  0.737890  1
  O  O9  1  0.737890  0.737890  0.294157  1
  O  O10  1  0.256375  0.256375  0.719445  1
  O  O11  1  0.256375  0.719445  0.256375  1
  O  O12  1  0.719445  0.256375  0.256375  1
  O  O13  1  0.246875  0.246875  0.246875  1
