# generated using pymatgen
data_Li2MnP3O10
_symmetry_space_group_name_H-M   'P 1'
_cell_length_a   9.95099004
_cell_length_b   8.06054159
_cell_length_c   11.85031636
_cell_angle_alpha   90.00000000
_cell_angle_beta   93.84283996
_cell_angle_gamma   90.00000000
_symmetry_Int_Tables_number   1
_chemical_formula_structural   Li2MnP3O10
_chemical_formula_sum   'Li8 Mn4 P12 O40'
_cell_volume   948.38113864
_cell_formula_units_Z   4
loop_
 _symmetry_equiv_pos_site_id
 _symmetry_equiv_pos_as_xyz
  1  'x, y, z'
loop_
 _atom_site_type_symbol
 _atom_site_label
 _atom_site_symmetry_multiplicity
 _atom_site_fract_x
 _atom_site_fract_y
 _atom_site_fract_z
 _atom_site_occupancy
  Li  Li0  1  0.606674  0.542484  0.856743  1
  Li  Li1  1  0.106674  0.957516  0.856743  1
  Li  Li2  1  0.092635  0.893875  0.560227  1
  Li  Li3  1  0.592635  0.606125  0.560227  1
  Li  Li4  1  0.407365  0.393875  0.439773  1
  Li  Li5  1  0.907365  0.106125  0.439773  1
  Li  Li6  1  0.893326  0.042484  0.143257  1
  Li  Li7  1  0.393326  0.457516  0.143257  1
  Mn  Mn8  1  0.367882  0.137597  0.831764  1
  Mn  Mn9  1  0.867882  0.362403  0.831764  1
  Mn  Mn10  1  0.132118  0.637597  0.168236  1
  Mn  Mn11  1  0.632118  0.862403  0.168236  1
  P  P12  1  0.193949  0.424880  0.939737  1
  P  P13  1  0.693949  0.075120  0.939737  1
  P  P14  1  0.090363  0.568868  0.728455  1
  P  P15  1  0.590363  0.931132  0.728455  1
  P  P16  1  0.063938  0.212386  0.664658  1
  P  P17  1  0.563938  0.287614  0.664658  1
  P  P18  1  0.436062  0.712386  0.335342  1
  P  P19  1  0.936062  0.787614  0.335342  1
  P  P20  1  0.409637  0.068868  0.271545  1
  P  P21  1  0.909637  0.431132  0.271545  1
  P  P22  1  0.306051  0.924880  0.060263  1
  P  P23  1  0.806051  0.575120  0.060263  1
  O  O24  1  0.063572  0.330070  0.929088  1
  O  O25  1  0.273428  0.005526  0.943721  1
  O  O26  1  0.324817  0.334719  0.916148  1
  O  O27  1  0.563572  0.169930  0.929088  1
  O  O28  1  0.773428  0.494474  0.943721  1
  O  O29  1  0.824817  0.165281  0.916148  1
  O  O30  1  0.184920  0.575288  0.845908  1
  O  O31  1  0.684920  0.924712  0.845908  1
  O  O32  1  0.154604  0.106395  0.745039  1
  O  O33  1  0.443653  0.941967  0.760147  1
  O  O34  1  0.420046  0.266991  0.704546  1
  O  O35  1  0.654604  0.393605  0.745039  1
  O  O36  1  0.943653  0.558033  0.760147  1
  O  O37  1  0.920046  0.233009  0.704546  1
  O  O38  1  0.130594  0.400382  0.666052  1
  O  O39  1  0.126655  0.716964  0.663164  1
  O  O40  1  0.630594  0.099618  0.666052  1
  O  O41  1  0.626655  0.783036  0.663164  1
  O  O42  1  0.058947  0.145532  0.545549  1
  O  O43  1  0.558947  0.354468  0.545549  1
  O  O44  1  0.441053  0.645532  0.454451  1
  O  O45  1  0.941053  0.854468  0.454451  1
  O  O46  1  0.373345  0.216964  0.336836  1
  O  O47  1  0.369406  0.900382  0.333948  1
  O  O48  1  0.873345  0.283036  0.336836  1
  O  O49  1  0.869406  0.599618  0.333948  1
  O  O50  1  0.079954  0.766991  0.295454  1
  O  O51  1  0.056347  0.441967  0.239853  1
  O  O52  1  0.345396  0.606395  0.254961  1
  O  O53  1  0.579954  0.733009  0.295454  1
  O  O54  1  0.556347  0.058033  0.239853  1
  O  O55  1  0.845396  0.893605  0.254961  1
  O  O56  1  0.315080  0.075288  0.154092  1
  O  O57  1  0.815080  0.424712  0.154092  1
  O  O58  1  0.175183  0.834719  0.083852  1
  O  O59  1  0.226572  0.505526  0.056279  1
  O  O60  1  0.436428  0.830070  0.070912  1
  O  O61  1  0.675183  0.665281  0.083852  1
  O  O62  1  0.726572  0.994474  0.056279  1
  O  O63  1  0.936428  0.669930  0.070912  1
