# generated using pymatgen
data_Li3V(FeO2)4
_symmetry_space_group_name_H-M   'P 1'
_cell_length_a   5.96818506
_cell_length_b   5.96818506
_cell_length_c   5.98684347
_cell_angle_alpha   60.08413091
_cell_angle_beta   119.91586909
_cell_angle_gamma   119.57663987
_symmetry_Int_Tables_number   1
_chemical_formula_structural   Li3V(FeO2)4
_chemical_formula_sum   'Li3 V1 Fe4 O8'
_cell_volume   151.45807047
_cell_formula_units_Z   1
loop_
 _symmetry_equiv_pos_site_id
 _symmetry_equiv_pos_as_xyz
  1  'x, y, z'
loop_
 _atom_site_type_symbol
 _atom_site_label
 _atom_site_symmetry_multiplicity
 _atom_site_fract_x
 _atom_site_fract_y
 _atom_site_fract_z
 _atom_site_occupancy
  Li  Li0  1  0.500000  0.000000  0.000000  1
  Li  Li1  1  0.000000  1.000000  0.500000  1
  Li  Li2  1  0.000000  0.500000  0.000000  1
  V  V3  1  0.500000  0.500000  0.000000  1
  Fe  Fe4  1  0.500000  0.500000  0.500000  1
  Fe  Fe5  1  0.000000  0.000000  0.000000  1
  Fe  Fe6  1  0.500000  1.000000  0.500000  1
  Fe  Fe7  1  0.000000  0.500000  0.500000  1
  O  O8  1  0.736971  0.263029  0.253206  1
  O  O9  1  0.259915  0.250314  0.759514  1
  O  O10  1  0.749686  0.740085  0.759514  1
  O  O11  1  0.249553  0.750447  0.244556  1
  O  O12  1  0.750447  0.249553  0.755444  1
  O  O13  1  0.250314  0.259915  0.240486  1
  O  O14  1  0.740085  0.749686  0.240486  1
  O  O15  1  0.263029  0.736971  0.746794  1
