# generated using pymatgen
data_Li3Mn(SbO3)4
_symmetry_space_group_name_H-M   'P 1'
_cell_length_a   5.30279986
_cell_length_b   5.58754184
_cell_length_c   7.71458875
_cell_angle_alpha   85.92045656
_cell_angle_beta   89.95068248
_cell_angle_gamma   89.96365964
_symmetry_Int_Tables_number   1
_chemical_formula_structural   Li3Mn(SbO3)4
_chemical_formula_sum   'Li3 Mn1 Sb4 O12'
_cell_volume   228.00101463
_cell_formula_units_Z   1
loop_
 _symmetry_equiv_pos_site_id
 _symmetry_equiv_pos_as_xyz
  1  'x, y, z'
loop_
 _atom_site_type_symbol
 _atom_site_label
 _atom_site_symmetry_multiplicity
 _atom_site_fract_x
 _atom_site_fract_y
 _atom_site_fract_z
 _atom_site_occupancy
  Li  Li0  1  0.500402  0.057544  0.783251  1
  Li  Li1  1  0.999615  0.567742  0.783897  1
  Li  Li2  1  0.500666  0.062683  0.280719  1
  Mn  Mn3  1  0.999899  0.561840  0.276836  1
  Sb  Sb4  1  0.000501  0.998259  0.989923  1
  Sb  Sb5  1  0.499863  0.486886  0.503278  1
  Sb  Sb6  1  0.001844  0.990955  0.501102  1
  Sb  Sb7  1  0.497911  0.489377  0.989762  1
  O  O8  1  0.699850  0.783299  0.417859  1
  O  O9  1  0.866533  0.964205  0.744659  1
  O  O10  1  0.675787  0.165085  0.048291  1
  O  O11  1  0.801458  0.286874  0.419803  1
  O  O12  1  0.195295  0.295046  0.913630  1
  O  O13  1  0.635743  0.463255  0.745271  1
  O  O14  1  0.377688  0.460416  0.241954  1
  O  O15  1  0.821571  0.664802  0.041526  1
  O  O16  1  0.170014  0.654491  0.544438  1
  O  O17  1  0.300844  0.789187  0.914349  1
  O  O18  1  0.124743  0.960147  0.241249  1
  O  O19  1  0.329774  0.157109  0.547804  1
