# generated using pymatgen
data_Li2FePCO7
_symmetry_space_group_name_H-M   'P 1'
_cell_length_a   8.32042110
_cell_length_b   6.48879721
_cell_length_c   10.16794998
_cell_angle_alpha   90.00000000
_cell_angle_beta   94.73127145
_cell_angle_gamma   90.00000000
_symmetry_Int_Tables_number   1
_chemical_formula_structural   Li2FePCO7
_chemical_formula_sum   'Li8 Fe4 P4 C4 O28'
_cell_volume   547.09221078
_cell_formula_units_Z   4
loop_
 _symmetry_equiv_pos_site_id
 _symmetry_equiv_pos_as_xyz
  1  'x, y, z'
loop_
 _atom_site_type_symbol
 _atom_site_label
 _atom_site_symmetry_multiplicity
 _atom_site_fract_x
 _atom_site_fract_y
 _atom_site_fract_z
 _atom_site_occupancy
  Li  Li0  1  0.903466  0.753753  0.381505  1
  Li  Li1  1  0.903466  0.746247  0.881505  1
  Li  Li2  1  0.725317  0.965675  0.125610  1
  Li  Li3  1  0.725317  0.534325  0.625610  1
  Li  Li4  1  0.274683  0.465675  0.374390  1
  Li  Li5  1  0.274683  0.034325  0.874390  1
  Li  Li6  1  0.096534  0.253753  0.118495  1
  Li  Li7  1  0.096534  0.246247  0.618495  1
  Fe  Fe8  1  0.670135  0.242182  0.399873  1
  Fe  Fe9  1  0.670135  0.257818  0.899873  1
  Fe  Fe10  1  0.329865  0.742182  0.100127  1
  Fe  Fe11  1  0.329865  0.757818  0.600127  1
  P  P12  1  0.579644  0.745118  0.360725  1
  P  P13  1  0.579644  0.754882  0.860725  1
  P  P14  1  0.420356  0.245118  0.139275  1
  P  P15  1  0.420356  0.254882  0.639275  1
  C  C16  1  0.960092  0.255447  0.351007  1
  C  C17  1  0.960092  0.244553  0.851007  1
  C  C18  1  0.039908  0.755447  0.148993  1
  C  C19  1  0.039908  0.744553  0.648993  1
  O  O20  1  0.923087  0.259788  0.474152  1
  O  O21  1  0.897813  0.780003  0.183759  1
  O  O22  1  0.923087  0.240212  0.974152  1
  O  O23  1  0.837700  0.226248  0.263262  1
  O  O24  1  0.897813  0.719997  0.683759  1
  O  O25  1  0.837700  0.273752  0.763262  1
  O  O26  1  0.681884  0.936509  0.403561  1
  O  O27  1  0.695629  0.562959  0.401770  1
  O  O28  1  0.695629  0.937041  0.901770  1
  O  O29  1  0.681884  0.563491  0.903561  1
  O  O30  1  0.579918  0.222507  0.072917  1
  O  O31  1  0.538833  0.757632  0.208539  1
  O  O32  1  0.579918  0.277493  0.572917  1
  O  O33  1  0.538833  0.742368  0.708539  1
  O  O34  1  0.461167  0.257632  0.291461  1
  O  O35  1  0.420082  0.722507  0.427083  1
  O  O36  1  0.461167  0.242368  0.791461  1
  O  O37  1  0.420082  0.777493  0.927083  1
  O  O38  1  0.318116  0.436509  0.096439  1
  O  O39  1  0.304371  0.062959  0.098230  1
  O  O40  1  0.304371  0.437041  0.598230  1
  O  O41  1  0.318116  0.063491  0.596439  1
  O  O42  1  0.162300  0.726248  0.236738  1
  O  O43  1  0.102187  0.280003  0.316241  1
  O  O44  1  0.162300  0.773752  0.736738  1
  O  O45  1  0.076913  0.759788  0.025848  1
  O  O46  1  0.102187  0.219997  0.816241  1
  O  O47  1  0.076913  0.740212  0.525848  1
