# generated using pymatgen
data_Li9Cr4C8(SO16)2
_symmetry_space_group_name_H-M   'P 1'
_cell_length_a   9.50280031
_cell_length_b   9.50280031
_cell_length_c   9.28047830
_cell_angle_alpha   61.09972813
_cell_angle_beta   118.90027187
_cell_angle_gamma   86.97253173
_symmetry_Int_Tables_number   1
_chemical_formula_structural   Li9Cr4C8(SO16)2
_chemical_formula_sum   'Li9 Cr4 C8 S2 O32'
_cell_volume   595.79159945
_cell_formula_units_Z   1
loop_
 _symmetry_equiv_pos_site_id
 _symmetry_equiv_pos_as_xyz
  1  'x, y, z'
loop_
 _atom_site_type_symbol
 _atom_site_label
 _atom_site_symmetry_multiplicity
 _atom_site_fract_x
 _atom_site_fract_y
 _atom_site_fract_z
 _atom_site_occupancy
  Li  Li0  1  0.814272  0.426949  0.407578  1
  Li  Li1  1  0.426949  0.814272  0.592422  1
  Li  Li2  1  0.423530  0.819385  0.011258  1
  Li  Li3  1  0.166776  0.589956  0.495032  1
  Li  Li4  1  0.819385  0.423530  0.988742  1
  Li  Li5  1  0.589956  0.166776  0.504968  1
  Li  Li6  1  0.588243  0.166842  0.918680  1
  Li  Li7  1  0.166842  0.588243  0.081320  1
  Li  Li8  1  0.163411  0.163411  0.500000  1
  Cr  Cr9  1  0.000265  0.001220  0.247464  1
  Cr  Cr10  1  0.501942  0.000495  0.251195  1
  Cr  Cr11  1  0.001220  0.000265  0.752536  1
  Cr  Cr12  1  0.000495  0.501942  0.748805  1
  C  C13  1  0.789911  0.783882  0.311096  1
  C  C14  1  0.838714  0.232983  0.806206  1
  C  C15  1  0.783882  0.789911  0.688904  1
  C  C16  1  0.771139  0.161530  0.306180  1
  C  C17  1  0.217710  0.213970  0.808135  1
  C  C18  1  0.232983  0.838714  0.193794  1
  C  C19  1  0.161530  0.771139  0.693820  1
  C  C20  1  0.213970  0.217710  0.191865  1
  S  S21  1  0.367870  0.367870  0.500000  1
  S  S22  1  0.624734  0.624734  0.000000  1
  O  O23  1  0.173244  0.436440  0.371916  1
  O  O24  1  0.424411  0.429229  0.363367  1
  O  O25  1  0.436440  0.173244  0.628084  1
  O  O26  1  0.224238  0.824441  0.335233  1
  O  O27  1  0.429229  0.424411  0.636633  1
  O  O28  1  0.824441  0.224238  0.664767  1
  O  O29  1  0.360806  0.086744  0.321184  1
  O  O30  1  0.830706  0.109752  0.943896  1
  O  O31  1  0.804419  0.638842  0.451152  1
  O  O32  1  0.638842  0.804419  0.548848  1
  O  O33  1  0.109752  0.830706  0.056104  1
  O  O34  1  0.917363  0.799266  0.298959  1
  O  O35  1  0.860722  0.364167  0.812079  1
  O  O36  1  0.638759  0.144396  0.309891  1
  O  O37  1  0.202537  0.091275  0.781970  1
  O  O38  1  0.086744  0.360806  0.678816  1
  O  O39  1  0.914269  0.641296  0.820737  1
  O  O40  1  0.799266  0.917363  0.701041  1
  O  O41  1  0.364167  0.860722  0.187921  1
  O  O42  1  0.091275  0.202537  0.218030  1
  O  O43  1  0.144396  0.638759  0.690109  1
  O  O44  1  0.899094  0.164979  0.447342  1
  O  O45  1  0.359630  0.194787  0.953192  1
  O  O46  1  0.194787  0.359630  0.046808  1
  O  O47  1  0.164979  0.899094  0.552658  1
  O  O48  1  0.641296  0.914269  0.179263  1
  O  O49  1  0.175650  0.779369  0.834788  1
  O  O50  1  0.564182  0.567095  0.862925  1
  O  O51  1  0.779369  0.175650  0.165212  1
  O  O52  1  0.567095  0.564182  0.137075  1
  O  O53  1  0.548079  0.818049  0.867397  1
  O  O54  1  0.818049  0.548079  0.132603  1
