# generated using pymatgen
data_Dy(ClO4)3
_symmetry_space_group_name_H-M   'P 1'
_cell_length_a   9.28714266
_cell_length_b   9.28714266
_cell_length_c   5.73330454
_cell_angle_alpha   90.00000000
_cell_angle_beta   90.00000000
_cell_angle_gamma   120.00000000
_symmetry_Int_Tables_number   1
_chemical_formula_structural   Dy(ClO4)3
_chemical_formula_sum   'Dy2 Cl6 O24'
_cell_volume   428.25246958
_cell_formula_units_Z   2
loop_
 _symmetry_equiv_pos_site_id
 _symmetry_equiv_pos_as_xyz
  1  'x, y, z'
loop_
 _atom_site_type_symbol
 _atom_site_label
 _atom_site_symmetry_multiplicity
 _atom_site_fract_x
 _atom_site_fract_y
 _atom_site_fract_z
 _atom_site_occupancy
  Dy  Dy0  1  0.333333  0.666667  0.750000  1
  Dy  Dy1  1  0.666667  0.333333  0.250000  1
  Cl  Cl2  1  0.090662  0.708213  0.250000  1
  Cl  Cl3  1  0.291787  0.382449  0.250000  1
  Cl  Cl4  1  0.617551  0.909338  0.250000  1
  Cl  Cl5  1  0.382449  0.090662  0.750000  1
  Cl  Cl6  1  0.708213  0.617551  0.750000  1
  Cl  Cl7  1  0.909338  0.291787  0.750000  1
  O  O8  1  0.019937  0.812410  0.250000  1
  O  O9  1  0.034548  0.469678  0.750000  1
  O  O10  1  0.197206  0.741973  0.043713  1
  O  O11  1  0.197206  0.741973  0.456287  1
  O  O12  1  0.435130  0.965452  0.750000  1
  O  O13  1  0.258027  0.455233  0.456287  1
  O  O14  1  0.258027  0.455233  0.043713  1
  O  O15  1  0.187590  0.207528  0.250000  1
  O  O16  1  0.544767  0.802794  0.043713  1
  O  O17  1  0.544767  0.802794  0.456287  1
  O  O18  1  0.207528  0.019937  0.750000  1
  O  O19  1  0.469678  0.435130  0.250000  1
  O  O20  1  0.530322  0.564870  0.750000  1
  O  O21  1  0.792472  0.980063  0.250000  1
  O  O22  1  0.455233  0.197206  0.543713  1
  O  O23  1  0.455233  0.197206  0.956287  1
  O  O24  1  0.812410  0.792472  0.750000  1
  O  O25  1  0.741973  0.544767  0.543713  1
  O  O26  1  0.741973  0.544767  0.956287  1
  O  O27  1  0.564870  0.034548  0.250000  1
  O  O28  1  0.802794  0.258027  0.956287  1
  O  O29  1  0.802794  0.258027  0.543713  1
  O  O30  1  0.965452  0.530322  0.250000  1
  O  O31  1  0.980063  0.187590  0.750000  1
