# generated using pymatgen
data_Li3MnSi2O7
_symmetry_space_group_name_H-M   'P 1'
_cell_length_a   8.53741847
_cell_length_b   13.04681486
_cell_length_c   8.59223638
_cell_angle_alpha   90.00000000
_cell_angle_beta   118.52299491
_cell_angle_gamma   90.00000000
_symmetry_Int_Tables_number   1
_chemical_formula_structural   Li3MnSi2O7
_chemical_formula_sum   'Li18 Mn6 Si12 O42'
_cell_volume   840.89371917
_cell_formula_units_Z   6
loop_
 _symmetry_equiv_pos_site_id
 _symmetry_equiv_pos_as_xyz
  1  'x, y, z'
loop_
 _atom_site_type_symbol
 _atom_site_label
 _atom_site_symmetry_multiplicity
 _atom_site_fract_x
 _atom_site_fract_y
 _atom_site_fract_z
 _atom_site_occupancy
  Li  Li0  1  0.027357  0.100592  0.338564  1
  Li  Li1  1  0.027691  0.435742  0.335029  1
  Li  Li2  1  0.331197  0.782136  0.656448  1
  Li  Li3  1  0.339147  0.266514  0.680822  1
  Li  Li4  1  0.998920  0.536073  0.998367  1
  Li  Li5  1  0.001080  0.036073  0.001633  1
  Li  Li6  1  0.313684  0.432439  0.983052  1
  Li  Li7  1  0.311472  0.105170  0.980998  1
  Li  Li8  1  0.668823  0.100097  0.696333  1
  Li  Li9  1  0.670135  0.435241  0.696428  1
  Li  Li10  1  0.329865  0.935241  0.303572  1
  Li  Li11  1  0.331177  0.600097  0.303667  1
  Li  Li12  1  0.688528  0.605170  0.019002  1
  Li  Li13  1  0.686316  0.932439  0.016948  1
  Li  Li14  1  0.660853  0.766514  0.319178  1
  Li  Li15  1  0.668803  0.282136  0.343552  1
  Li  Li16  1  0.972309  0.935742  0.664971  1
  Li  Li17  1  0.972643  0.600592  0.661436  1
  Mn  Mn18  1  0.017460  0.768814  0.026128  1
  Mn  Mn19  1  0.982540  0.268814  0.973872  1
  Mn  Mn20  1  0.335042  0.491338  0.668121  1
  Mn  Mn21  1  0.336008  0.043564  0.668139  1
  Mn  Mn22  1  0.663992  0.543564  0.331861  1
  Mn  Mn23  1  0.664958  0.991338  0.331879  1
  Si  Si24  1  0.022323  0.653834  0.347503  1
  Si  Si25  1  0.020849  0.879299  0.347704  1
  Si  Si26  1  0.325957  0.878892  0.967568  1
  Si  Si27  1  0.324605  0.656584  0.965580  1
  Si  Si28  1  0.653450  0.881201  0.671303  1
  Si  Si29  1  0.648662  0.653565  0.670955  1
  Si  Si30  1  0.351338  0.153565  0.329045  1
  Si  Si31  1  0.346550  0.381201  0.328697  1
  Si  Si32  1  0.675395  0.156584  0.034420  1
  Si  Si33  1  0.674043  0.378892  0.032432  1
  Si  Si34  1  0.979151  0.379299  0.652296  1
  Si  Si35  1  0.977677  0.153834  0.652497  1
  O  O36  1  0.137690  0.151083  0.207716  1
  O  O37  1  0.137947  0.379078  0.210060  1
  O  O38  1  0.121632  0.766896  0.430504  1
  O  O39  1  0.182279  0.962588  0.421630  1
  O  O40  1  0.180526  0.570618  0.417126  1
  O  O41  1  0.127715  0.396622  0.585639  1
  O  O42  1  0.126521  0.140652  0.585849  1
  O  O43  1  0.073063  0.161053  0.869758  1
  O  O44  1  0.421253  0.135799  0.543263  1
  O  O45  1  0.079638  0.371035  0.871446  1
  O  O46  1  0.422600  0.398163  0.544518  1
  O  O47  1  0.245577  0.966295  0.808826  1
  O  O48  1  0.243119  0.567747  0.810123  1
  O  O49  1  0.293591  0.768090  0.857022  1
  O  O50  1  0.199696  0.657866  0.064276  1
  O  O51  1  0.564274  0.767318  0.683008  1
  O  O52  1  0.204136  0.875352  0.068303  1
  O  O53  1  0.561000  0.569847  0.753865  1
  O  O54  1  0.565902  0.963588  0.753837  1
  O  O55  1  0.466314  0.388182  0.893476  1
  O  O56  1  0.468230  0.144493  0.893106  1
  O  O57  1  0.531770  0.644493  0.106894  1
  O  O58  1  0.533686  0.888182  0.106524  1
  O  O59  1  0.434098  0.463588  0.246163  1
  O  O60  1  0.439000  0.069847  0.246135  1
  O  O61  1  0.795864  0.375352  0.931697  1
  O  O62  1  0.435726  0.267318  0.316992  1
  O  O63  1  0.800304  0.157866  0.935724  1
  O  O64  1  0.706409  0.268090  0.142978  1
  O  O65  1  0.756881  0.067747  0.189877  1
  O  O66  1  0.754423  0.466295  0.191174  1
  O  O67  1  0.577400  0.898163  0.455482  1
  O  O68  1  0.920362  0.871035  0.128554  1
  O  O69  1  0.578747  0.635799  0.456737  1
  O  O70  1  0.926937  0.661053  0.130242  1
  O  O71  1  0.873479  0.640652  0.414151  1
  O  O72  1  0.872285  0.896622  0.414361  1
  O  O73  1  0.819474  0.070618  0.582874  1
  O  O74  1  0.817721  0.462588  0.578370  1
  O  O75  1  0.878368  0.266896  0.569496  1
  O  O76  1  0.862053  0.879078  0.789940  1
  O  O77  1  0.862310  0.651083  0.792284  1
