# generated using pymatgen
data_Li2VCrP2(O4F)2
_symmetry_space_group_name_H-M   'P 1'
_cell_length_a   5.21460613
_cell_length_b   7.34627593
_cell_length_c   14.97889843
_cell_angle_alpha   93.86340529
_cell_angle_beta   92.41883146
_cell_angle_gamma   108.41380753
_symmetry_Int_Tables_number   1
_chemical_formula_structural   Li2VCrP2(O4F)2
_chemical_formula_sum   'Li6 V3 Cr3 P6 O24 F6'
_cell_volume   541.97134257
_cell_formula_units_Z   3
loop_
 _symmetry_equiv_pos_site_id
 _symmetry_equiv_pos_as_xyz
  1  'x, y, z'
loop_
 _atom_site_type_symbol
 _atom_site_label
 _atom_site_symmetry_multiplicity
 _atom_site_fract_x
 _atom_site_fract_y
 _atom_site_fract_z
 _atom_site_occupancy
  Li  Li0  1  0.934660  0.015530  0.204944  1
  Li  Li1  1  0.731871  0.650362  0.461032  1
  Li  Li2  1  0.397435  0.315600  0.128117  1
  Li  Li3  1  0.602565  0.684400  0.871883  1
  Li  Li4  1  0.268129  0.349638  0.538968  1
  Li  Li5  1  0.065340  0.984470  0.795056  1
  V  V6  1  0.000000  0.500000  0.000000  1
  V  V7  1  0.667167  0.666943  0.666345  1
  V  V8  1  0.332833  0.333057  0.333655  1
  Cr  Cr9  1  0.000000  0.000000  0.000000  1
  Cr  Cr10  1  0.666853  0.166477  0.666682  1
  Cr  Cr11  1  0.333147  0.833523  0.333318  1
  P  P12  1  0.891392  0.452700  0.214102  1
  P  P13  1  0.774338  0.213345  0.453521  1
  P  P14  1  0.557386  0.117643  0.880375  1
  P  P15  1  0.442614  0.882357  0.119625  1
  P  P16  1  0.225662  0.786655  0.546479  1
  P  P17  1  0.108608  0.547300  0.785898  1
  O  O18  1  0.990237  0.346011  0.737649  1
  O  O19  1  0.862286  0.210026  0.553503  1
  O  O20  1  0.763793  0.001801  0.888684  1
  O  O21  1  0.655721  0.012314  0.404541  1
  O  O22  1  0.805119  0.458717  0.113894  1
  O  O23  1  0.953592  0.670394  0.584036  1
  O  O24  1  0.907175  0.666947  0.778200  1
  O  O25  1  0.619261  0.336185  0.250984  1
  O  O26  1  0.675920  0.320949  0.928989  1
  O  O27  1  0.573597  0.333717  0.445015  1
  O  O28  1  0.472906  0.122622  0.780390  1
  O  O29  1  0.713832  0.998665  0.082517  1
  O  O30  1  0.286168  0.001335  0.917483  1
  O  O31  1  0.527094  0.877378  0.219610  1
  O  O32  1  0.426403  0.666283  0.554985  1
  O  O33  1  0.324080  0.679051  0.071011  1
  O  O34  1  0.380739  0.663815  0.749016  1
  O  O35  1  0.092825  0.333053  0.221800  1
  O  O36  1  0.046408  0.329606  0.415964  1
  O  O37  1  0.194881  0.541283  0.886106  1
  O  O38  1  0.344279  0.987686  0.595459  1
  O  O39  1  0.236207  0.998199  0.111316  1
  O  O40  1  0.137714  0.789974  0.446497  1
  O  O41  1  0.009763  0.653989  0.262351  1
  F  F42  1  0.847247  0.717175  0.976249  1
  F  F43  1  0.819632  0.958327  0.690482  1
  F  F44  1  0.514677  0.375177  0.643039  1
  F  F45  1  0.485323  0.624823  0.356961  1
  F  F46  1  0.180368  0.041673  0.309518  1
  F  F47  1  0.152753  0.282825  0.023751  1
