# generated using pymatgen
data_Li2Mg3Ti6O16
_symmetry_space_group_name_H-M   'P 1'
_cell_length_a   8.47021172
_cell_length_b   8.47538746
_cell_length_c   8.47210548
_cell_angle_alpha   90.00000000
_cell_angle_beta   90.36692131
_cell_angle_gamma   90.00000000
_symmetry_Int_Tables_number   1
_chemical_formula_structural   Li2Mg3Ti6O16
_chemical_formula_sum   'Li4 Mg6 Ti12 O32'
_cell_volume   608.18580057
_cell_formula_units_Z   2
loop_
 _symmetry_equiv_pos_site_id
 _symmetry_equiv_pos_as_xyz
  1  'x, y, z'
loop_
 _atom_site_type_symbol
 _atom_site_label
 _atom_site_symmetry_multiplicity
 _atom_site_fract_x
 _atom_site_fract_y
 _atom_site_fract_z
 _atom_site_occupancy
  Li  Li0  1  0.746841  0.504491  0.002255  1
  Li  Li1  1  0.625869  0.375623  0.625658  1
  Li  Li2  1  0.374131  0.875623  0.374342  1
  Li  Li3  1  0.253159  0.004491  0.997745  1
  Mg  Mg4  1  0.247045  0.498361  0.495647  1
  Mg  Mg5  1  0.002428  0.244447  0.747005  1
  Mg  Mg6  1  0.997572  0.744447  0.252995  1
  Mg  Mg7  1  0.752955  0.998361  0.504353  1
  Mg  Mg8  1  0.505417  0.751857  0.753907  1
  Mg  Mg9  1  0.494583  0.251857  0.246093  1
  Ti  Ti10  1  0.130898  0.866827  0.633942  1
  Ti  Ti11  1  0.123442  0.115804  0.359979  1
  Ti  Ti12  1  0.112465  0.373403  0.112847  1
  Ti  Ti13  1  0.887535  0.873403  0.887153  1
  Ti  Ti14  1  0.876558  0.615804  0.640021  1
  Ti  Ti15  1  0.869102  0.366827  0.366058  1
  Ti  Ti16  1  0.634561  0.136798  0.882170  1
  Ti  Ti17  1  0.625439  0.880412  0.128594  1
  Ti  Ti18  1  0.619356  0.624840  0.376527  1
  Ti  Ti19  1  0.380644  0.124840  0.623473  1
  Ti  Ti20  1  0.374561  0.380412  0.871406  1
  Ti  Ti21  1  0.365439  0.636798  0.117830  1
  O  O22  1  0.147287  0.606201  0.141712  1
  O  O23  1  0.140480  0.110553  0.612859  1
  O  O24  1  0.142009  0.361485  0.893447  1
  O  O25  1  0.138323  0.145256  0.146181  1
  O  O26  1  0.120254  0.894382  0.388103  1
  O  O27  1  0.108478  0.646004  0.610859  1
  O  O28  1  0.110680  0.361310  0.363811  1
  O  O29  1  0.105170  0.888037  0.857127  1
  O  O30  1  0.894830  0.388037  0.142873  1
  O  O31  1  0.889320  0.861310  0.636189  1
  O  O32  1  0.891522  0.146004  0.389141  1
  O  O33  1  0.879746  0.394382  0.611897  1
  O  O34  1  0.861677  0.645256  0.853819  1
  O  O35  1  0.857991  0.861485  0.106553  1
  O  O36  1  0.859520  0.610553  0.387141  1
  O  O37  1  0.852713  0.106201  0.858288  1
  O  O38  1  0.642201  0.387687  0.372365  1
  O  O39  1  0.637154  0.888646  0.890462  1
  O  O40  1  0.639680  0.629963  0.604700  1
  O  O41  1  0.629516  0.862267  0.357000  1
  O  O42  1  0.611534  0.104604  0.109118  1
  O  O43  1  0.609429  0.355132  0.877793  1
  O  O44  1  0.610174  0.639792  0.142241  1
  O  O45  1  0.604929  0.120814  0.637847  1
  O  O46  1  0.395071  0.620814  0.362153  1
  O  O47  1  0.389826  0.139792  0.857759  1
  O  O48  1  0.390571  0.855132  0.122207  1
  O  O49  1  0.388466  0.604604  0.890882  1
  O  O50  1  0.370484  0.362267  0.643000  1
  O  O51  1  0.360320  0.129963  0.395300  1
  O  O52  1  0.362846  0.388646  0.109538  1
  O  O53  1  0.357799  0.887687  0.627635  1
