# generated using pymatgen
data_K2In2P2HO10
_symmetry_space_group_name_H-M   'P 1'
_cell_length_a   9.44767972
_cell_length_b   9.53041348
_cell_length_c   11.31399742
_cell_angle_alpha   90.00000000
_cell_angle_beta   90.00000000
_cell_angle_gamma   90.00000000
_symmetry_Int_Tables_number   1
_chemical_formula_structural   K2In2P2HO10
_chemical_formula_sum   'K8 In8 P8 H4 O40'
_cell_volume   1018.71565581
_cell_formula_units_Z   4
loop_
 _symmetry_equiv_pos_site_id
 _symmetry_equiv_pos_as_xyz
  1  'x, y, z'
loop_
 _atom_site_type_symbol
 _atom_site_label
 _atom_site_symmetry_multiplicity
 _atom_site_fract_x
 _atom_site_fract_y
 _atom_site_fract_z
 _atom_site_occupancy
  K  K0  1  0.984617  0.973935  0.405509  1
  K  K1  1  0.515383  0.026065  0.905509  1
  K  K2  1  0.484617  0.526065  0.594491  1
  K  K3  1  0.015383  0.473935  0.094491  1
  K  K4  1  0.259904  0.630964  0.335143  1
  K  K5  1  0.240096  0.369036  0.835143  1
  K  K6  1  0.759904  0.869036  0.664857  1
  K  K7  1  0.740096  0.130964  0.164857  1
  In  In8  1  0.854283  0.607237  0.379725  1
  In  In9  1  0.645717  0.392763  0.879725  1
  In  In10  1  0.354283  0.892763  0.620275  1
  In  In11  1  0.145717  0.107237  0.120275  1
  In  In12  1  0.601522  0.655007  0.120851  1
  In  In13  1  0.898478  0.344993  0.620851  1
  In  In14  1  0.101522  0.844993  0.879149  1
  In  In15  1  0.398478  0.155007  0.379149  1
  P  P16  1  0.067890  0.659792  0.623399  1
  P  P17  1  0.432110  0.340208  0.123399  1
  P  P18  1  0.567890  0.840208  0.376601  1
  P  P19  1  0.932110  0.159792  0.876601  1
  P  P20  1  0.920722  0.812533  0.133100  1
  P  P21  1  0.579278  0.187467  0.633100  1
  P  P22  1  0.420722  0.687467  0.866900  1
  P  P23  1  0.079278  0.312533  0.366900  1
  H  H24  1  0.667423  0.433657  0.262954  1
  H  H25  1  0.832577  0.566343  0.762954  1
  H  H26  1  0.167423  0.066343  0.737046  1
  H  H27  1  0.332577  0.933657  0.237046  1
  O  O28  1  0.971740  0.710646  0.519535  1
  O  O29  1  0.528260  0.289354  0.019535  1
  O  O30  1  0.471740  0.789354  0.480465  1
  O  O31  1  0.028260  0.210646  0.980465  1
  O  O32  1  0.502246  0.771748  0.263366  1
  O  O33  1  0.997754  0.228252  0.763366  1
  O  O34  1  0.002246  0.728252  0.736634  1
  O  O35  1  0.497754  0.271748  0.236634  1
  O  O36  1  0.429278  0.502035  0.136226  1
  O  O37  1  0.070722  0.497965  0.636226  1
  O  O38  1  0.929278  0.997965  0.863774  1
  O  O39  1  0.570722  0.002035  0.363774  1
  O  O40  1  0.757617  0.820970  0.120089  1
  O  O41  1  0.742383  0.179030  0.620089  1
  O  O42  1  0.257617  0.679030  0.879911  1
  O  O43  1  0.242383  0.320970  0.379911  1
  O  O44  1  0.725841  0.514127  0.240898  1
  O  O45  1  0.774159  0.485873  0.740898  1
  O  O46  1  0.225841  0.985873  0.759102  1
  O  O47  1  0.274159  0.014127  0.259102  1
  O  O48  1  0.759533  0.472067  0.508677  1
  O  O49  1  0.740467  0.527933  0.008677  1
  O  O50  1  0.259533  0.027933  0.491323  1
  O  O51  1  0.240467  0.972067  0.991323  1
  O  O52  1  0.491572  0.753932  0.977364  1
  O  O53  1  0.008428  0.246068  0.477364  1
  O  O54  1  0.991572  0.746068  0.022636  1
  O  O55  1  0.508428  0.253932  0.522636  1
  O  O56  1  0.966501  0.720729  0.240991  1
  O  O57  1  0.533499  0.279271  0.740991  1
  O  O58  1  0.466501  0.779271  0.759009  1
  O  O59  1  0.033499  0.220729  0.259009  1
  O  O60  1  0.029532  0.464994  0.344244  1
  O  O61  1  0.470468  0.535006  0.844244  1
  O  O62  1  0.529532  0.035006  0.655756  1
  O  O63  1  0.970468  0.964994  0.155756  1
  O  O64  1  0.721338  0.792431  0.403051  1
  O  O65  1  0.778662  0.207569  0.903051  1
  O  O66  1  0.221338  0.707569  0.596949  1
  O  O67  1  0.278662  0.292431  0.096949  1
