# generated using pymatgen
data_LiCoSiO4
_symmetry_space_group_name_H-M   'P 1'
_cell_length_a   5.08607991
_cell_length_b   10.08304077
_cell_length_c   8.44482415
_cell_angle_alpha   90.00000000
_cell_angle_beta   126.53672175
_cell_angle_gamma   90.00000000
_symmetry_Int_Tables_number   1
_chemical_formula_structural   LiCoSiO4
_chemical_formula_sum   'Li4 Co4 Si4 O16'
_cell_volume   347.96689851
_cell_formula_units_Z   4
loop_
 _symmetry_equiv_pos_site_id
 _symmetry_equiv_pos_as_xyz
  1  'x, y, z'
loop_
 _atom_site_type_symbol
 _atom_site_label
 _atom_site_symmetry_multiplicity
 _atom_site_fract_x
 _atom_site_fract_y
 _atom_site_fract_z
 _atom_site_occupancy
  Li  Li0  1  0.206962  0.640487  0.008405  1
  Li  Li1  1  0.793038  0.140487  0.491595  1
  Li  Li2  1  0.206962  0.859513  0.508405  1
  Li  Li3  1  0.793038  0.359513  0.991595  1
  Co  Co4  1  0.698925  0.676391  0.504473  1
  Co  Co5  1  0.301075  0.176391  0.995527  1
  Co  Co6  1  0.698925  0.823609  0.004473  1
  Co  Co7  1  0.301075  0.323609  0.495527  1
  Si  Si8  1  0.970661  0.907181  0.772099  1
  Si  Si9  1  0.029339  0.407181  0.727901  1
  Si  Si10  1  0.970661  0.592819  0.272099  1
  Si  Si11  1  0.029339  0.092819  0.227901  1
  O  O12  1  0.340394  0.124228  0.220818  1
  O  O13  1  0.710799  0.325024  0.547208  1
  O  O14  1  0.129446  0.350232  0.940399  1
  O  O15  1  0.962937  0.566338  0.722531  1
  O  O16  1  0.037063  0.066338  0.777469  1
  O  O17  1  0.870554  0.850232  0.559601  1
  O  O18  1  0.289201  0.825024  0.952792  1
  O  O19  1  0.659606  0.624228  0.279182  1
  O  O20  1  0.340394  0.375772  0.720818  1
  O  O21  1  0.710799  0.174976  0.047208  1
  O  O22  1  0.129446  0.149768  0.440399  1
  O  O23  1  0.962937  0.933662  0.222531  1
  O  O24  1  0.037063  0.433662  0.277469  1
  O  O25  1  0.870554  0.649768  0.059601  1
  O  O26  1  0.289201  0.674976  0.452792  1
  O  O27  1  0.659606  0.875772  0.779182  1
