# generated using pymatgen
data_Li2CoBO4
_symmetry_space_group_name_H-M   'P 1'
_cell_length_a   6.42507586
_cell_length_b   5.10600351
_cell_length_c   10.68289634
_cell_angle_alpha   90.00000000
_cell_angle_beta   95.18844200
_cell_angle_gamma   90.00000000
_symmetry_Int_Tables_number   1
_chemical_formula_structural   Li2CoBO4
_chemical_formula_sum   'Li8 Co4 B4 O16'
_cell_volume   349.03202404
_cell_formula_units_Z   4
loop_
 _symmetry_equiv_pos_site_id
 _symmetry_equiv_pos_as_xyz
  1  'x, y, z'
loop_
 _atom_site_type_symbol
 _atom_site_label
 _atom_site_symmetry_multiplicity
 _atom_site_fract_x
 _atom_site_fract_y
 _atom_site_fract_z
 _atom_site_occupancy
  Li  Li0  1  0.100385  0.652458  0.792417  1
  Li  Li1  1  0.100385  0.847542  0.292417  1
  Li  Li2  1  0.217394  0.827743  0.570665  1
  Li  Li3  1  0.217394  0.672257  0.070665  1
  Li  Li4  1  0.782606  0.327743  0.929335  1
  Li  Li5  1  0.782606  0.172257  0.429335  1
  Li  Li6  1  0.899615  0.152458  0.707583  1
  Li  Li7  1  0.899615  0.347542  0.207583  1
  Co  Co8  1  0.502930  0.840245  0.845891  1
  Co  Co9  1  0.497070  0.340245  0.654109  1
  Co  Co10  1  0.502930  0.659755  0.345891  1
  Co  Co11  1  0.497070  0.159755  0.154109  1
  B  B12  1  0.196101  0.176344  0.936993  1
  B  B13  1  0.196101  0.323656  0.436993  1
  B  B14  1  0.803899  0.676344  0.563007  1
  B  B15  1  0.803899  0.823656  0.063007  1
  O  O16  1  0.055422  0.301432  0.856404  1
  O  O17  1  0.055422  0.198568  0.356404  1
  O  O18  1  0.247904  0.909552  0.923079  1
  O  O19  1  0.247904  0.590448  0.423079  1
  O  O20  1  0.292486  0.193160  0.541962  1
  O  O21  1  0.387646  0.658858  0.711682  1
  O  O22  1  0.292486  0.306840  0.041962  1
  O  O23  1  0.387646  0.841142  0.211682  1
  O  O24  1  0.612354  0.158858  0.788318  1
  O  O25  1  0.707514  0.693160  0.958038  1
  O  O26  1  0.612354  0.341142  0.288318  1
  O  O27  1  0.707514  0.806840  0.458038  1
  O  O28  1  0.752096  0.409552  0.576921  1
  O  O29  1  0.752096  0.090448  0.076921  1
  O  O30  1  0.944578  0.801432  0.643596  1
  O  O31  1  0.944578  0.698568  0.143596  1
