# generated using pymatgen
data_Bi12Rh12O41
_symmetry_space_group_name_H-M   'P 1'
_cell_length_a   12.67771609
_cell_length_b   12.67771609
_cell_length_c   12.67771609
_cell_angle_alpha   146.46888836
_cell_angle_beta   131.75743294
_cell_angle_gamma   60.02881204
_symmetry_Int_Tables_number   1
_chemical_formula_structural   Bi12Rh12O41
_chemical_formula_sum   'Bi12 Rh12 O41'
_cell_volume   831.96069611
_cell_formula_units_Z   1
loop_
 _symmetry_equiv_pos_site_id
 _symmetry_equiv_pos_as_xyz
  1  'x, y, z'
loop_
 _atom_site_type_symbol
 _atom_site_label
 _atom_site_symmetry_multiplicity
 _atom_site_fract_x
 _atom_site_fract_y
 _atom_site_fract_z
 _atom_site_occupancy
  Bi  Bi0  1  0.585722  0.578212  0.007509  1
  Bi  Bi1  1  0.087227  0.584405  0.001397  1
  Bi  Bi2  1  0.087227  0.085830  0.502822  1
  Bi  Bi3  1  0.078152  0.083143  0.995009  1
  Bi  Bi4  1  0.255031  0.251795  0.003236  1
  Bi  Bi5  1  0.429297  0.421788  0.007509  1
  Bi  Bi6  1  0.740384  0.742779  0.483163  1
  Bi  Bi7  1  0.416992  0.914170  0.001397  1
  Bi  Bi8  1  0.740384  0.257221  0.997605  1
  Bi  Bi9  1  0.416992  0.415595  0.502822  1
  Bi  Bi10  1  0.911866  0.916857  0.995009  1
  Bi  Bi11  1  0.751441  0.748205  0.003236  1
  Rh  Rh12  1  0.583065  0.083926  0.499140  1
  Rh  Rh13  1  0.917556  0.918441  0.502030  1
  Rh  Rh14  1  0.917556  0.415527  0.999116  1
  Rh  Rh15  1  0.415214  0.916074  0.499140  1
  Rh  Rh16  1  0.250926  0.750381  0.500545  1
  Rh  Rh17  1  0.084177  0.582998  0.501178  1
  Rh  Rh18  1  0.583589  0.081559  0.999116  1
  Rh  Rh19  1  0.583589  0.584473  0.502030  1
  Rh  Rh20  1  0.918180  0.417002  0.501178  1
  Rh  Rh21  1  0.750164  0.249619  0.500545  1
  Rh  Rh22  1  0.248090  0.749743  0.997833  1
  Rh  Rh23  1  0.248090  0.250257  0.498347  1
  O  O24  1  0.445285  0.280812  0.587975  1
  O  O25  1  0.445285  0.857310  0.164472  1
  O  O26  1  0.582310  0.166494  0.415816  1
  O  O27  1  0.861433  0.027692  0.417408  1
  O  O28  1  0.958228  0.834432  0.123796  1
  O  O29  1  0.722487  0.890910  0.417397  1
  O  O30  1  0.861433  0.444025  0.833741  1
  O  O31  1  0.722487  0.305090  0.831576  1
  O  O32  1  0.831949  0.665697  0.166252  1
  O  O33  1  0.331302  0.500000  0.831302  1
  O  O34  1  0.000629  0.166846  0.833783  1
  O  O35  1  0.230738  0.342039  0.888699  1
  O  O36  1  0.968935  0.386199  0.163972  1
  O  O37  1  0.307162  0.142690  0.587975  1
  O  O38  1  0.111737  0.527972  0.167200  1
  O  O39  1  0.307162  0.719188  0.164472  1
  O  O40  1  0.968935  0.804963  0.582737  1
  O  O41  1  0.111737  0.944537  0.583765  1
  O  O42  1  0.249322  0.833506  0.415816  1
  O  O43  1  0.250531  0.666990  0.583541  1
  O  O44  1  0.584789  0.000000  0.584789  1
  O  O45  1  0.194567  0.361282  0.416488  1
  O  O46  1  0.389716  0.972308  0.833741  1
  O  O47  1  0.389716  0.555975  0.417408  1
  O  O48  1  0.194567  0.778078  0.833285  1
  O  O49  1  0.526486  0.694910  0.417397  1
  O  O50  1  0.526486  0.109090  0.831576  1
  O  O51  1  0.289364  0.165568  0.123796  1
  O  O52  1  0.500554  0.334303  0.166252  1
  O  O53  1  0.666937  0.833154  0.833783  1
  O  O54  1  0.849541  0.000000  0.849541  1
  O  O55  1  0.546660  0.657961  0.888699  1
  O  O56  1  0.777774  0.195037  0.163972  1
  O  O57  1  0.639228  0.472028  0.583765  1
  O  O58  1  0.777774  0.613801  0.582737  1
  O  O59  1  0.639228  0.055463  0.167200  1
  O  O60  1  0.919373  0.500000  0.419373  1
  O  O61  1  0.916552  0.333010  0.583541  1
  O  O62  1  0.055206  0.638718  0.833285  1
  O  O63  1  0.055206  0.221922  0.416488  1
  O  O64  1  0.165243  0.000000  0.165243  1
