# generated using pymatgen
data_Li5SbS4
_symmetry_space_group_name_H-M   'P 1'
_cell_length_a   16.50530459
_cell_length_b   16.50530459
_cell_length_c   5.93388554
_cell_angle_alpha   90.00000000
_cell_angle_beta   90.00000000
_cell_angle_gamma   90.00000000
_symmetry_Int_Tables_number   1
_chemical_formula_structural   Li5SbS4
_chemical_formula_sum   'Li40 Sb8 S32'
_cell_volume   1616.53924062
_cell_formula_units_Z   8
loop_
 _symmetry_equiv_pos_site_id
 _symmetry_equiv_pos_as_xyz
  1  'x, y, z'
loop_
 _atom_site_type_symbol
 _atom_site_label
 _atom_site_symmetry_multiplicity
 _atom_site_fract_x
 _atom_site_fract_y
 _atom_site_fract_z
 _atom_site_occupancy
  Li  Li0  1  0.761307  0.238693  0.000000  1
  Li  Li1  1  0.738693  0.261307  0.500000  1
  Li  Li2  1  0.238693  0.238693  0.000000  1
  Li  Li3  1  0.261307  0.261307  0.500000  1
  Li  Li4  1  0.113194  0.361571  0.562699  1
  Li  Li5  1  0.886806  0.361571  0.562699  1
  Li  Li6  1  0.371926  0.371926  0.000000  1
  Li  Li7  1  0.628074  0.371926  0.000000  1
  Li  Li8  1  0.861571  0.386806  0.062699  1
  Li  Li9  1  0.138429  0.386806  0.062699  1
  Li  Li10  1  0.000000  0.500000  0.089762  1
  Li  Li11  1  0.500000  0.500000  0.500000  1
  Li  Li12  1  0.500000  0.500000  0.000000  1
  Li  Li13  1  0.000000  0.500000  0.589762  1
  Li  Li14  1  0.861571  0.613194  0.062699  1
  Li  Li15  1  0.138429  0.613194  0.062699  1
  Li  Li16  1  0.371926  0.628074  0.000000  1
  Li  Li17  1  0.628074  0.628074  0.000000  1
  Li  Li18  1  0.886806  0.638429  0.562699  1
  Li  Li19  1  0.113194  0.638429  0.562699  1
  Li  Li20  1  0.238693  0.761307  0.000000  1
  Li  Li21  1  0.261307  0.738693  0.500000  1
  Li  Li22  1  0.761307  0.761307  0.000000  1
  Li  Li23  1  0.738693  0.738693  0.500000  1
  Li  Li24  1  0.386806  0.861571  0.937301  1
  Li  Li25  1  0.613194  0.861571  0.937301  1
  Li  Li26  1  0.871926  0.871926  0.500000  1
  Li  Li27  1  0.128074  0.871926  0.500000  1
  Li  Li28  1  0.361571  0.886806  0.437301  1
  Li  Li29  1  0.638429  0.886806  0.437301  1
  Li  Li30  1  0.000000  0.000000  0.500000  1
  Li  Li31  1  0.000000  0.000000  0.000000  1
  Li  Li32  1  0.500000  0.000000  0.910238  1
  Li  Li33  1  0.500000  0.000000  0.410238  1
  Li  Li34  1  0.361571  0.113194  0.437301  1
  Li  Li35  1  0.638429  0.113194  0.437301  1
  Li  Li36  1  0.871926  0.128074  0.500000  1
  Li  Li37  1  0.128074  0.128074  0.500000  1
  Li  Li38  1  0.386806  0.138429  0.937301  1
  Li  Li39  1  0.613194  0.138429  0.937301  1
  Sb  Sb40  1  0.500000  0.268180  0.464350  1
  Sb  Sb41  1  0.268180  0.500000  0.535650  1
  Sb  Sb42  1  0.731820  0.500000  0.535650  1
  Sb  Sb43  1  0.500000  0.731820  0.464350  1
  Sb  Sb44  1  0.000000  0.768180  0.035650  1
  Sb  Sb45  1  0.768180  0.000000  0.964350  1
  Sb  Sb46  1  0.231820  0.000000  0.964350  1
  Sb  Sb47  1  0.000000  0.231820  0.035650  1
  S  S48  1  0.866262  0.258720  0.276920  1
  S  S49  1  0.133738  0.258720  0.276920  1
  S  S50  1  0.758720  0.366262  0.776920  1
  S  S51  1  0.241280  0.366262  0.776920  1
  S  S52  1  0.000000  0.380428  0.841890  1
  S  S53  1  0.500000  0.379821  0.771478  1
  S  S54  1  0.880428  0.500000  0.341890  1
  S  S55  1  0.379821  0.500000  0.228522  1
  S  S56  1  0.119572  0.500000  0.341890  1
  S  S57  1  0.620179  0.500000  0.228522  1
  S  S58  1  0.500000  0.620179  0.771478  1
  S  S59  1  0.000000  0.619572  0.841890  1
  S  S60  1  0.241280  0.633738  0.776920  1
  S  S61  1  0.758720  0.633738  0.776920  1
  S  S62  1  0.866262  0.741280  0.276920  1
  S  S63  1  0.133738  0.741280  0.276920  1
  S  S64  1  0.366262  0.758720  0.223080  1
  S  S65  1  0.633738  0.758720  0.223080  1
  S  S66  1  0.258720  0.866262  0.723080  1
  S  S67  1  0.741280  0.866262  0.723080  1
  S  S68  1  0.500000  0.880428  0.658110  1
  S  S69  1  0.000000  0.879821  0.728522  1
  S  S70  1  0.879821  0.000000  0.271478  1
  S  S71  1  0.120179  0.000000  0.271478  1
  S  S72  1  0.380428  0.000000  0.158110  1
  S  S73  1  0.619572  0.000000  0.158110  1
  S  S74  1  0.000000  0.120179  0.728522  1
  S  S75  1  0.500000  0.119572  0.658110  1
  S  S76  1  0.258720  0.133738  0.723080  1
  S  S77  1  0.741280  0.133738  0.723080  1
  S  S78  1  0.366262  0.241280  0.223080  1
  S  S79  1  0.633738  0.241280  0.223080  1
