# generated using pymatgen
data_Sb(SO4)2
_symmetry_space_group_name_H-M   'P 1'
_cell_length_a   9.37954471
_cell_length_b   9.54857389
_cell_length_c   14.13305337
_cell_angle_alpha   90.00000000
_cell_angle_beta   90.00000000
_cell_angle_gamma   90.00000000
_symmetry_Int_Tables_number   1
_chemical_formula_structural   Sb(SO4)2
_chemical_formula_sum   'Sb8 S16 O64'
_cell_volume   1265.77428961
_cell_formula_units_Z   8
loop_
 _symmetry_equiv_pos_site_id
 _symmetry_equiv_pos_as_xyz
  1  'x, y, z'
loop_
 _atom_site_type_symbol
 _atom_site_label
 _atom_site_symmetry_multiplicity
 _atom_site_fract_x
 _atom_site_fract_y
 _atom_site_fract_z
 _atom_site_occupancy
  Sb  Sb0  1  0.897979  0.858697  0.125230  1
  Sb  Sb1  1  0.602021  0.858697  0.625230  1
  Sb  Sb2  1  0.397979  0.641303  0.125230  1
  Sb  Sb3  1  0.102021  0.641303  0.625230  1
  Sb  Sb4  1  0.897979  0.358697  0.374770  1
  Sb  Sb5  1  0.602021  0.358697  0.874770  1
  Sb  Sb6  1  0.397979  0.141303  0.374770  1
  Sb  Sb7  1  0.102021  0.141303  0.874770  1
  S  S8  1  0.932280  0.926201  0.724343  1
  S  S9  1  0.567720  0.926201  0.224343  1
  S  S10  1  0.067720  0.573799  0.224343  1
  S  S11  1  0.432280  0.573799  0.724343  1
  S  S12  1  0.567720  0.426201  0.275657  1
  S  S13  1  0.932280  0.426201  0.775657  1
  S  S14  1  0.432280  0.073799  0.775657  1
  S  S15  1  0.067720  0.073799  0.275657  1
  S  S16  1  0.311969  0.838845  0.486866  1
  S  S17  1  0.188031  0.838845  0.986866  1
  S  S18  1  0.811969  0.661155  0.486866  1
  S  S19  1  0.688031  0.661155  0.986866  1
  S  S20  1  0.311969  0.338845  0.013134  1
  S  S21  1  0.188031  0.338845  0.513134  1
  S  S22  1  0.811969  0.161155  0.013134  1
  S  S23  1  0.688031  0.161155  0.513134  1
  O  O24  1  0.305350  0.996876  0.478085  1
  O  O25  1  0.194650  0.996876  0.978085  1
  O  O26  1  0.007216  0.986885  0.347588  1
  O  O27  1  0.492784  0.986885  0.847588  1
  O  O28  1  0.534459  0.975554  0.325219  1
  O  O29  1  0.965541  0.975554  0.825219  1
  O  O30  1  0.770423  0.919795  0.725338  1
  O  O31  1  0.729577  0.919795  0.225338  1
  O  O32  1  0.270166  0.813140  0.078837  1
  O  O33  1  0.229834  0.813140  0.578837  1
  O  O34  1  0.033875  0.799181  0.008618  1
  O  O35  1  0.466125  0.799181  0.508618  1
  O  O36  1  0.984501  0.774727  0.722215  1
  O  O37  1  0.515499  0.774727  0.222215  1
  O  O38  1  0.259283  0.763005  0.407165  1
  O  O39  1  0.240717  0.763005  0.907165  1
  O  O40  1  0.759283  0.736995  0.407165  1
  O  O41  1  0.740717  0.736995  0.907165  1
  O  O42  1  0.015499  0.725273  0.222215  1
  O  O43  1  0.484501  0.725273  0.722215  1
  O  O44  1  0.966125  0.700819  0.508618  1
  O  O45  1  0.533875  0.700819  0.008618  1
  O  O46  1  0.770166  0.686860  0.078837  1
  O  O47  1  0.729834  0.686860  0.578837  1
  O  O48  1  0.229577  0.580205  0.225338  1
  O  O49  1  0.270423  0.580205  0.725338  1
  O  O50  1  0.465541  0.524446  0.825219  1
  O  O51  1  0.034459  0.524446  0.325219  1
  O  O52  1  0.507216  0.513115  0.347588  1
  O  O53  1  0.992784  0.513115  0.847588  1
  O  O54  1  0.805350  0.503124  0.478085  1
  O  O55  1  0.694650  0.503124  0.978085  1
  O  O56  1  0.305350  0.496876  0.021915  1
  O  O57  1  0.194650  0.496876  0.521915  1
  O  O58  1  0.492784  0.486885  0.652412  1
  O  O59  1  0.007216  0.486885  0.152412  1
  O  O60  1  0.534459  0.475554  0.174781  1
  O  O61  1  0.965541  0.475554  0.674781  1
  O  O62  1  0.729577  0.419795  0.274662  1
  O  O63  1  0.770423  0.419795  0.774662  1
  O  O64  1  0.270166  0.313140  0.421163  1
  O  O65  1  0.229834  0.313140  0.921163  1
  O  O66  1  0.466125  0.299181  0.991382  1
  O  O67  1  0.033875  0.299181  0.491382  1
  O  O68  1  0.515499  0.274727  0.277785  1
  O  O69  1  0.984501  0.274727  0.777785  1
  O  O70  1  0.259283  0.263005  0.092835  1
  O  O71  1  0.240717  0.263005  0.592835  1
  O  O72  1  0.759283  0.236995  0.092835  1
  O  O73  1  0.740717  0.236995  0.592835  1
  O  O74  1  0.484501  0.225273  0.777785  1
  O  O75  1  0.015499  0.225273  0.277785  1
  O  O76  1  0.533875  0.200819  0.491382  1
  O  O77  1  0.966125  0.200819  0.991382  1
  O  O78  1  0.770166  0.186860  0.421163  1
  O  O79  1  0.729834  0.186860  0.921163  1
  O  O80  1  0.270423  0.080205  0.774662  1
  O  O81  1  0.229577  0.080205  0.274662  1
  O  O82  1  0.465541  0.024446  0.674781  1
  O  O83  1  0.034459  0.024446  0.174781  1
  O  O84  1  0.992784  0.013115  0.652412  1
  O  O85  1  0.507216  0.013115  0.152412  1
  O  O86  1  0.805350  0.003124  0.021915  1
  O  O87  1  0.694650  0.003124  0.521915  1
