# generated using pymatgen
data_SnH4(ClO)2
_symmetry_space_group_name_H-M   'P 1'
_cell_length_a   8.99845138
_cell_length_b   7.22346937
_cell_length_c   9.24928492
_cell_angle_alpha   90.00000000
_cell_angle_beta   114.21273868
_cell_angle_gamma   90.00000000
_symmetry_Int_Tables_number   1
_chemical_formula_structural   SnH4(ClO)2
_chemical_formula_sum   'Sn4 H16 Cl8 O8'
_cell_volume   548.31533802
_cell_formula_units_Z   4
loop_
 _symmetry_equiv_pos_site_id
 _symmetry_equiv_pos_as_xyz
  1  'x, y, z'
loop_
 _atom_site_type_symbol
 _atom_site_label
 _atom_site_symmetry_multiplicity
 _atom_site_fract_x
 _atom_site_fract_y
 _atom_site_fract_z
 _atom_site_occupancy
  Sn  Sn0  1  0.965428  0.755243  0.620090  1
  Sn  Sn1  1  0.534572  0.255243  0.379910  1
  Sn  Sn2  1  0.034572  0.244757  0.379910  1
  Sn  Sn3  1  0.465428  0.744757  0.620090  1
  H  H4  1  0.094362  0.530199  0.898396  1
  H  H5  1  0.405638  0.030199  0.101604  1
  H  H6  1  0.905638  0.469801  0.101604  1
  H  H7  1  0.594362  0.969801  0.898396  1
  H  H8  1  0.014786  0.700691  0.950299  1
  H  H9  1  0.485214  0.200691  0.049701  1
  H  H10  1  0.985214  0.299309  0.049701  1
  H  H11  1  0.514786  0.799309  0.950299  1
  H  H12  1  0.794774  0.751318  0.009486  1
  H  H13  1  0.705226  0.251318  0.990514  1
  H  H14  1  0.205226  0.248682  0.990514  1
  H  H15  1  0.294774  0.748682  0.009486  1
  H  H16  1  0.961973  0.791278  0.156370  1
  H  H17  1  0.538027  0.291278  0.843630  1
  H  H18  1  0.038027  0.208722  0.843630  1
  H  H19  1  0.461973  0.708722  0.156370  1
  Cl  Cl20  1  0.815617  0.991602  0.717184  1
  Cl  Cl21  1  0.684383  0.491602  0.282816  1
  Cl  Cl22  1  0.184383  0.008398  0.282816  1
  Cl  Cl23  1  0.315617  0.508398  0.717184  1
  Cl  Cl24  1  0.196305  0.002050  0.692400  1
  Cl  Cl25  1  0.303695  0.502050  0.307600  1
  Cl  Cl26  1  0.803695  0.997950  0.307600  1
  Cl  Cl27  1  0.696305  0.497950  0.692400  1
  O  O28  1  0.086234  0.669202  0.893547  1
  O  O29  1  0.413766  0.169202  0.106453  1
  O  O30  1  0.913766  0.330798  0.106453  1
  O  O31  1  0.586234  0.830798  0.893547  1
  O  O32  1  0.907664  0.704278  0.067654  1
  O  O33  1  0.592336  0.204278  0.932346  1
  O  O34  1  0.092336  0.295722  0.932346  1
  O  O35  1  0.407664  0.795722  0.067654  1
