# generated using pymatgen
data_Na2FeO3
_symmetry_space_group_name_H-M   'P 1'
_cell_length_a   5.82979694
_cell_length_b   5.82979694
_cell_length_c   5.29248058
_cell_angle_alpha   82.25628017
_cell_angle_beta   97.74371983
_cell_angle_gamma   57.88365280
_symmetry_Int_Tables_number   1
_chemical_formula_structural   Na2FeO3
_chemical_formula_sum   'Na4 Fe2 O6'
_cell_volume   146.32242755
_cell_formula_units_Z   2
loop_
 _symmetry_equiv_pos_site_id
 _symmetry_equiv_pos_as_xyz
  1  'x, y, z'
loop_
 _atom_site_type_symbol
 _atom_site_label
 _atom_site_symmetry_multiplicity
 _atom_site_fract_x
 _atom_site_fract_y
 _atom_site_fract_z
 _atom_site_occupancy
  Na  Na0  1  0.404648  0.410100  0.491626  1
  Na  Na1  1  0.741125  0.753184  0.501766  1
  Na  Na2  1  0.246816  0.258875  0.001766  1
  Na  Na3  1  0.589900  0.595352  0.991626  1
  Fe  Fe4  1  0.085508  0.039517  0.516909  1
  Fe  Fe5  1  0.960483  0.914492  0.016909  1
  O  O6  1  0.138664  0.715135  0.769374  1
  O  O7  1  0.284865  0.861336  0.269374  1
  O  O8  1  0.376626  0.042904  0.672474  1
  O  O9  1  0.854306  0.242440  0.745651  1
  O  O10  1  0.957096  0.623374  0.172474  1
  O  O11  1  0.757560  0.145694  0.245651  1
