# generated using pymatgen
data_Rb2MgH4
_symmetry_space_group_name_H-M   'P 1'
_cell_length_a   8.24961798
_cell_length_b   8.77028958
_cell_length_c   10.63601467
_cell_angle_alpha   90.00000000
_cell_angle_beta   90.00000000
_cell_angle_gamma   90.00000000
_symmetry_Int_Tables_number   1
_chemical_formula_structural   Rb2MgH4
_chemical_formula_sum   'Rb8 Mg4 H16'
_cell_volume   769.53202604
_cell_formula_units_Z   4
loop_
 _symmetry_equiv_pos_site_id
 _symmetry_equiv_pos_as_xyz
  1  'x, y, z'
loop_
 _atom_site_type_symbol
 _atom_site_label
 _atom_site_symmetry_multiplicity
 _atom_site_fract_x
 _atom_site_fract_y
 _atom_site_fract_z
 _atom_site_occupancy
  Rb  Rb0  1  0.750000  0.989388  0.239219  1
  Rb  Rb1  1  0.250000  0.243747  0.166768  1
  Rb  Rb2  1  0.750000  0.256253  0.666768  1
  Rb  Rb3  1  0.250000  0.510612  0.739219  1
  Rb  Rb4  1  0.750000  0.489388  0.260781  1
  Rb  Rb5  1  0.250000  0.743747  0.333232  1
  Rb  Rb6  1  0.750000  0.756253  0.833232  1
  Rb  Rb7  1  0.250000  0.010612  0.760781  1
  Mg  Mg8  1  0.250000  0.240901  0.514037  1
  Mg  Mg9  1  0.750000  0.259099  0.014037  1
  Mg  Mg10  1  0.250000  0.740901  0.985963  1
  Mg  Mg11  1  0.750000  0.759099  0.485963  1
  H  H12  1  0.250000  0.049943  0.442108  1
  H  H13  1  0.750000  0.093617  0.908028  1
  H  H14  1  0.583804  0.243510  0.135171  1
  H  H15  1  0.916196  0.243510  0.135171  1
  H  H16  1  0.083804  0.256490  0.635171  1
  H  H17  1  0.416196  0.256490  0.635171  1
  H  H18  1  0.250000  0.406383  0.408028  1
  H  H19  1  0.750000  0.450057  0.942108  1
  H  H20  1  0.250000  0.549943  0.057892  1
  H  H21  1  0.750000  0.593617  0.591972  1
  H  H22  1  0.583804  0.743510  0.364829  1
  H  H23  1  0.916196  0.743510  0.364829  1
  H  H24  1  0.083804  0.756490  0.864829  1
  H  H25  1  0.416196  0.756490  0.864829  1
  H  H26  1  0.250000  0.906383  0.091972  1
  H  H27  1  0.750000  0.950057  0.557892  1
