# generated using pymatgen
data_Li2Cr2H4O9
_symmetry_space_group_name_H-M   'P 1'
_cell_length_a   7.84509170
_cell_length_b   7.84509170
_cell_length_c   8.95558695
_cell_angle_alpha   87.55490324
_cell_angle_beta   92.44509676
_cell_angle_gamma   120.67511954
_symmetry_Int_Tables_number   1
_chemical_formula_structural   Li2Cr2H4O9
_chemical_formula_sum   'Li4 Cr4 H8 O18'
_cell_volume   473.48020517
_cell_formula_units_Z   2
loop_
 _symmetry_equiv_pos_site_id
 _symmetry_equiv_pos_as_xyz
  1  'x, y, z'
loop_
 _atom_site_type_symbol
 _atom_site_label
 _atom_site_symmetry_multiplicity
 _atom_site_fract_x
 _atom_site_fract_y
 _atom_site_fract_z
 _atom_site_occupancy
  Li  Li0  1  0.673518  0.442424  0.983102  1
  Li  Li1  1  0.557576  0.326482  0.483102  1
  Li  Li2  1  0.536490  0.639558  0.732242  1
  Li  Li3  1  0.360442  0.463510  0.232242  1
  Cr  Cr4  1  0.296482  0.031952  0.882932  1
  Cr  Cr5  1  0.968048  0.703518  0.382932  1
  Cr  Cr6  1  0.183389  0.317997  0.699308  1
  Cr  Cr7  1  0.682003  0.816611  0.199308  1
  H  H8  1  0.811933  0.609592  0.706833  1
  H  H9  1  0.390408  0.188067  0.206833  1
  H  H10  1  0.905407  0.726586  0.855130  1
  H  H11  1  0.273414  0.094593  0.355130  1
  H  H12  1  0.758116  0.161689  0.528020  1
  H  H13  1  0.838311  0.241884  0.028020  1
  H  H14  1  0.005135  0.449298  0.955764  1
  H  H15  1  0.550702  0.994865  0.455764  1
  O  O16  1  0.127774  0.084547  0.774368  1
  O  O17  1  0.915453  0.872226  0.274368  1
  O  O18  1  0.413406  0.202698  0.012289  1
  O  O19  1  0.797302  0.586594  0.512289  1
  O  O20  1  0.155674  0.811854  0.955756  1
  O  O21  1  0.188146  0.844326  0.455756  1
  O  O22  1  0.457698  0.035880  0.774590  1
  O  O23  1  0.964120  0.542302  0.274590  1
  O  O24  1  0.382336  0.407686  0.593636  1
  O  O25  1  0.592314  0.617664  0.093636  1
  O  O26  1  0.992963  0.295809  0.605802  1
  O  O27  1  0.704191  0.007037  0.105802  1
  O  O28  1  0.252604  0.478312  0.833892  1
  O  O29  1  0.521688  0.747396  0.333892  1
  O  O30  1  0.776659  0.640937  0.803814  1
  O  O31  1  0.359063  0.223341  0.303814  1
  O  O32  1  0.865874  0.368639  0.979523  1
  O  O33  1  0.631361  0.134126  0.479523  1
