# generated using pymatgen
data_LiFeF5
_symmetry_space_group_name_H-M   'P 1'
_cell_length_a   10.76771017
_cell_length_b   10.76771017
_cell_length_c   10.76771017
_cell_angle_alpha   95.50366678
_cell_angle_beta   95.50366678
_cell_angle_gamma   143.91859777
_symmetry_Int_Tables_number   1
_chemical_formula_structural   LiFeF5
_chemical_formula_sum   'Li8 Fe8 F40'
_cell_volume   699.10548104
_cell_formula_units_Z   8
loop_
 _symmetry_equiv_pos_site_id
 _symmetry_equiv_pos_as_xyz
  1  'x, y, z'
loop_
 _atom_site_type_symbol
 _atom_site_label
 _atom_site_symmetry_multiplicity
 _atom_site_fract_x
 _atom_site_fract_y
 _atom_site_fract_z
 _atom_site_occupancy
  Li  Li0  1  0.815738  0.533724  0.542971  1
  Li  Li1  1  0.259247  0.477234  0.042971  1
  Li  Li2  1  0.783724  0.740753  0.217987  1
  Li  Li3  1  0.727234  0.184262  0.717987  1
  Li  Li4  1  0.466276  0.009247  0.282013  1
  Li  Li5  1  0.522766  0.565738  0.782013  1
  Li  Li6  1  0.434262  0.216276  0.957029  1
  Li  Li7  1  0.990753  0.272766  0.457029  1
  Fe  Fe8  1  0.943839  0.051178  0.706929  1
  Fe  Fe9  1  0.486910  0.693839  0.392661  1
  Fe  Fe10  1  0.301178  0.094249  0.607339  1
  Fe  Fe11  1  0.344249  0.236910  0.293071  1
  Fe  Fe12  1  0.905751  0.513090  0.206929  1
  Fe  Fe13  1  0.948822  0.655751  0.892661  1
  Fe  Fe14  1  0.763090  0.056161  0.107339  1
  Fe  Fe15  1  0.306161  0.698822  0.793071  1
  F  F16  1  0.052700  0.211701  0.593382  1
  F  F17  1  0.674774  0.797356  0.573923  1
  F  F18  1  0.047356  0.973434  0.622582  1
  F  F19  1  0.461701  0.368319  0.659001  1
  F  F20  1  0.709318  0.802700  0.340999  1
  F  F21  1  0.350852  0.424774  0.377418  1
  F  F22  1  0.326864  0.586843  0.222128  1
  F  F23  1  0.885285  0.645264  0.722128  1
  F  F24  1  0.223434  0.100852  0.426077  1
  F  F25  1  0.065572  0.031062  0.193192  1
  F  F26  1  0.412130  0.877620  0.693192  1
  F  F27  1  0.616733  0.782545  0.068031  1
  F  F28  1  0.535486  0.201297  0.568031  1
  F  F29  1  0.618319  0.459318  0.406618  1
  F  F30  1  0.968938  0.162130  0.034510  1
  F  F31  1  0.122380  0.815572  0.534510  1
  F  F32  1  0.032545  0.464514  0.665811  1
  F  F33  1  0.451297  0.383267  0.165811  1
  F  F34  1  0.895264  0.673136  0.259979  1
  F  F35  1  0.836843  0.114715  0.759979  1
  F  F36  1  0.413157  0.635285  0.740021  1
  F  F37  1  0.354736  0.076864  0.240021  1
  F  F38  1  0.217455  0.285486  0.834189  1
  F  F39  1  0.798703  0.366733  0.334189  1
  F  F40  1  0.127620  0.934428  0.965490  1
  F  F41  1  0.281062  0.587870  0.465490  1
  F  F42  1  0.631681  0.290682  0.093382  1
  F  F43  1  0.714514  0.548703  0.931969  1
  F  F44  1  0.633267  0.967455  0.431969  1
  F  F45  1  0.837870  0.872380  0.806808  1
  F  F46  1  0.184428  0.718938  0.306808  1
  F  F47  1  0.026566  0.649148  0.073923  1
  F  F48  1  0.364715  0.104736  0.777872  1
  F  F49  1  0.923136  0.163157  0.277872  1
  F  F50  1  0.899148  0.325226  0.122582  1
  F  F51  1  0.540682  0.947300  0.159001  1
  F  F52  1  0.788299  0.381681  0.840999  1
  F  F53  1  0.202644  0.776566  0.877418  1
  F  F54  1  0.575226  0.952644  0.926077  1
  F  F55  1  0.197300  0.538299  0.906618  1
