# generated using pymatgen
data_Li3Sn(PO4)2
_symmetry_space_group_name_H-M   'P 1'
_cell_length_a   8.51899983
_cell_length_b   8.51899983
_cell_length_c   7.70899437
_cell_angle_alpha   90.00000000
_cell_angle_beta   90.00000000
_cell_angle_gamma   120.00000000
_symmetry_Int_Tables_number   1
_chemical_formula_structural   Li3Sn(PO4)2
_chemical_formula_sum   'Li9 Sn3 P6 O24'
_cell_volume   484.51316245
_cell_formula_units_Z   3
loop_
 _symmetry_equiv_pos_site_id
 _symmetry_equiv_pos_as_xyz
  1  'x, y, z'
loop_
 _atom_site_type_symbol
 _atom_site_label
 _atom_site_symmetry_multiplicity
 _atom_site_fract_x
 _atom_site_fract_y
 _atom_site_fract_z
 _atom_site_occupancy
  Li  Li0  1  0.350495  0.008074  0.640321  1
  Li  Li1  1  0.991926  0.342421  0.640321  1
  Li  Li2  1  0.000000  0.000000  0.601232  1
  Li  Li3  1  0.333333  0.666667  0.529047  1
  Li  Li4  1  0.306899  0.348429  0.354733  1
  Li  Li5  1  0.657579  0.649505  0.640321  1
  Li  Li6  1  0.666667  0.333333  0.499182  1
  Li  Li7  1  0.041530  0.693101  0.354733  1
  Li  Li8  1  0.651571  0.958470  0.354733  1
  Sn  Sn9  1  0.000000  0.000000  0.050046  1
  Sn  Sn10  1  0.333333  0.666667  0.027378  1
  Sn  Sn11  1  0.666667  0.333333  0.946421  1
  P  P12  1  0.021507  0.685260  0.747538  1
  P  P13  1  0.314740  0.336246  0.747538  1
  P  P14  1  0.663754  0.978493  0.747538  1
  P  P15  1  0.370243  0.037739  0.245252  1
  P  P16  1  0.667496  0.629757  0.245252  1
  P  P17  1  0.962261  0.332504  0.245252  1
  O  O18  1  0.159552  0.939078  0.254546  1
  O  O19  1  0.143588  0.709385  0.588023  1
  O  O20  1  0.144089  0.768545  0.908630  1
  O  O21  1  0.432004  0.894447  0.218413  1
  O  O22  1  0.105553  0.537557  0.218413  1
  O  O23  1  0.060922  0.220474  0.254546  1
  O  O24  1  0.624456  0.855911  0.908630  1
  O  O25  1  0.227909  0.133393  0.708719  1
  O  O26  1  0.231455  0.375544  0.908630  1
  O  O27  1  0.290615  0.434202  0.588023  1
  O  O28  1  0.565798  0.856412  0.588023  1
  O  O29  1  0.462443  0.567996  0.218413  1
  O  O30  1  0.527730  0.417119  0.774968  1
  O  O31  1  0.448524  0.136841  0.416147  1
  O  O32  1  0.688317  0.551476  0.416147  1
  O  O33  1  0.744683  0.567280  0.091407  1
  O  O34  1  0.779526  0.840448  0.254546  1
  O  O35  1  0.432720  0.177404  0.091407  1
  O  O36  1  0.905484  0.772091  0.708719  1
  O  O37  1  0.889389  0.472270  0.774968  1
  O  O38  1  0.582881  0.110611  0.774968  1
  O  O39  1  0.822596  0.255317  0.091407  1
  O  O40  1  0.863159  0.311683  0.416147  1
  O  O41  1  0.866607  0.094516  0.708719  1
