# generated using pymatgen
data_Na4MgO3
_symmetry_space_group_name_H-M   'P 1'
_cell_length_a   6.33277707
_cell_length_b   6.33277707
_cell_length_c   8.11419011
_cell_angle_alpha   70.29970274
_cell_angle_beta   109.70029726
_cell_angle_gamma   124.05927005
_symmetry_Int_Tables_number   1
_chemical_formula_structural   Na4MgO3
_chemical_formula_sum   'Na8 Mg2 O6'
_cell_volume   249.18041989
_cell_formula_units_Z   2
loop_
 _symmetry_equiv_pos_site_id
 _symmetry_equiv_pos_as_xyz
  1  'x, y, z'
loop_
 _atom_site_type_symbol
 _atom_site_label
 _atom_site_symmetry_multiplicity
 _atom_site_fract_x
 _atom_site_fract_y
 _atom_site_fract_z
 _atom_site_occupancy
  Na  Na0  1  0.485916  0.078265  0.160995  1
  Na  Na1  1  0.921735  0.514084  0.660995  1
  Na  Na2  1  0.268126  0.028167  0.461975  1
  Na  Na3  1  0.031155  0.267391  0.068173  1
  Na  Na4  1  0.971833  0.731874  0.961975  1
  Na  Na5  1  0.732609  0.968845  0.568173  1
  Na  Na6  1  0.120954  0.551735  0.362431  1
  Na  Na7  1  0.448265  0.879046  0.862431  1
  Mg  Mg8  1  0.663293  0.619442  0.247256  1
  Mg  Mg9  1  0.380558  0.336707  0.747256  1
  O  O10  1  0.678922  0.314128  0.397897  1
  O  O11  1  0.685872  0.321078  0.897897  1
  O  O12  1  0.358564  0.653355  0.152259  1
  O  O13  1  0.346645  0.641436  0.652259  1
  O  O14  1  0.006301  0.885869  0.196644  1
  O  O15  1  0.114131  0.993699  0.696644  1
