# generated using pymatgen
data_Sm2Ge2O7
_symmetry_space_group_name_H-M   'P 1'
_cell_length_a   6.98732872
_cell_length_b   6.98732872
_cell_length_c   12.73364113
_cell_angle_alpha   90.00000000
_cell_angle_beta   90.00000000
_cell_angle_gamma   90.00000000
_symmetry_Int_Tables_number   1
_chemical_formula_structural   Sm2Ge2O7
_chemical_formula_sum   'Sm8 Ge8 O28'
_cell_volume   621.69153756
_cell_formula_units_Z   4
loop_
 _symmetry_equiv_pos_site_id
 _symmetry_equiv_pos_as_xyz
  1  'x, y, z'
loop_
 _atom_site_type_symbol
 _atom_site_label
 _atom_site_symmetry_multiplicity
 _atom_site_fract_x
 _atom_site_fract_y
 _atom_site_fract_z
 _atom_site_occupancy
  Sm  Sm0  1  0.122611  0.649758  0.134645  1
  Sm  Sm1  1  0.149758  0.377389  0.884645  1
  Sm  Sm2  1  0.350242  0.877389  0.365355  1
  Sm  Sm3  1  0.377389  0.149758  0.115355  1
  Sm  Sm4  1  0.622611  0.850242  0.615355  1
  Sm  Sm5  1  0.649758  0.122611  0.865355  1
  Sm  Sm6  1  0.850242  0.622611  0.384645  1
  Sm  Sm7  1  0.877389  0.350242  0.634645  1
  Ge  Ge8  1  0.098312  0.845746  0.621181  1
  Ge  Ge9  1  0.154254  0.901688  0.878819  1
  Ge  Ge10  1  0.345746  0.401688  0.371181  1
  Ge  Ge11  1  0.401688  0.345746  0.628819  1
  Ge  Ge12  1  0.598312  0.654254  0.128819  1
  Ge  Ge13  1  0.654254  0.598312  0.871181  1
  Ge  Ge14  1  0.845746  0.098312  0.378819  1
  Ge  Ge15  1  0.901688  0.154254  0.121181  1
  O  O16  1  0.026772  0.924402  0.374756  1
  O  O17  1  0.062124  0.336670  0.072101  1
  O  O18  1  0.075598  0.973228  0.125244  1
  O  O19  1  0.143109  0.690527  0.953636  1
  O  O20  1  0.163330  0.562124  0.322101  1
  O  O21  1  0.190527  0.356891  0.703636  1
  O  O22  1  0.196594  0.803406  0.750000  1
  O  O23  1  0.303406  0.303406  0.500000  1
  O  O24  1  0.309473  0.856891  0.546364  1
  O  O25  1  0.336670  0.062124  0.927899  1
  O  O26  1  0.356891  0.190527  0.296364  1
  O  O27  1  0.424402  0.473228  0.124756  1
  O  O28  1  0.437876  0.836670  0.177899  1
  O  O29  1  0.473228  0.424402  0.875244  1
  O  O30  1  0.526772  0.575598  0.375244  1
  O  O31  1  0.562124  0.163330  0.677899  1
  O  O32  1  0.575598  0.526772  0.624756  1
  O  O33  1  0.643109  0.809473  0.796364  1
  O  O34  1  0.663330  0.937876  0.427899  1
  O  O35  1  0.690527  0.143109  0.046364  1
  O  O36  1  0.696594  0.696594  0.000000  1
  O  O37  1  0.803406  0.196594  0.250000  1
  O  O38  1  0.809473  0.643109  0.203636  1
  O  O39  1  0.836670  0.437876  0.822101  1
  O  O40  1  0.856891  0.309473  0.453636  1
  O  O41  1  0.924402  0.026772  0.625244  1
  O  O42  1  0.937876  0.663330  0.572101  1
  O  O43  1  0.973228  0.075598  0.874756  1
