# generated using pymatgen
data_NaZn(H3O2)3
_symmetry_space_group_name_H-M   'P 1'
_cell_length_a   3.46694391
_cell_length_b   8.20129278
_cell_length_c   11.18130932
_cell_angle_alpha   94.39771168
_cell_angle_beta   98.25184784
_cell_angle_gamma   92.22320055
_symmetry_Int_Tables_number   1
_chemical_formula_structural   NaZn(H3O2)3
_chemical_formula_sum   'Na2 Zn2 H18 O12'
_cell_volume   313.30527138
_cell_formula_units_Z   2
loop_
 _symmetry_equiv_pos_site_id
 _symmetry_equiv_pos_as_xyz
  1  'x, y, z'
loop_
 _atom_site_type_symbol
 _atom_site_label
 _atom_site_symmetry_multiplicity
 _atom_site_fract_x
 _atom_site_fract_y
 _atom_site_fract_z
 _atom_site_occupancy
  Na  Na0  1  0.294565  0.777292  0.715833  1
  Na  Na1  1  0.705435  0.222708  0.284167  1
  Zn  Zn2  1  0.731287  0.409596  0.822412  1
  Zn  Zn3  1  0.268713  0.590404  0.177588  1
  H  H4  1  0.281254  0.605861  0.921850  1
  H  H5  1  0.718746  0.394139  0.078150  1
  H  H6  1  0.486258  0.198523  0.940237  1
  H  H7  1  0.513742  0.801477  0.059763  1
  H  H8  1  0.912359  0.306043  0.624605  1
  H  H9  1  0.087641  0.693957  0.375395  1
  H  H10  1  0.702298  0.543952  0.604854  1
  H  H11  1  0.297702  0.456048  0.395146  1
  H  H12  1  0.605438  0.674101  0.509598  1
  H  H13  1  0.394562  0.325899  0.490402  1
  H  H14  1  0.825208  0.017430  0.874735  1
  H  H15  1  0.174792  0.982570  0.125265  1
  H  H16  1  0.982662  0.854573  0.927697  1
  H  H17  1  0.017338  0.145427  0.072303  1
  H  H18  1  0.548788  0.870527  0.385165  1
  H  H19  1  0.451212  0.129473  0.614835  1
  H  H20  1  0.880027  0.939043  0.322558  1
  H  H21  1  0.119973  0.060957  0.677442  1
  O  O22  1  0.253368  0.534120  0.845892  1
  O  O23  1  0.746632  0.465880  0.154108  1
  O  O24  1  0.757518  0.230945  0.935291  1
  O  O25  1  0.242482  0.769055  0.064709  1
  O  O26  1  0.660284  0.340007  0.644357  1
  O  O27  1  0.339716  0.659993  0.355643  1
  O  O28  1  0.729004  0.663046  0.593821  1
  O  O29  1  0.270996  0.336954  0.406179  1
  O  O30  1  0.860303  0.899747  0.852276  1
  O  O31  1  0.139697  0.100253  0.147724  1
  O  O32  1  0.687658  0.974359  0.374058  1
  O  O33  1  0.312342  0.025641  0.625942  1
