# generated using pymatgen
data_Nd3SbO7
_symmetry_space_group_name_H-M   'P 1'
_cell_length_a   6.68034014
_cell_length_b   6.68034014
_cell_length_c   7.73949841
_cell_angle_alpha   90.00000000
_cell_angle_beta   90.00000000
_cell_angle_gamma   110.43060772
_symmetry_Int_Tables_number   1
_chemical_formula_structural   Nd3SbO7
_chemical_formula_sum   'Nd6 Sb2 O14'
_cell_volume   323.66361985
_cell_formula_units_Z   2
loop_
 _symmetry_equiv_pos_site_id
 _symmetry_equiv_pos_as_xyz
  1  'x, y, z'
loop_
 _atom_site_type_symbol
 _atom_site_label
 _atom_site_symmetry_multiplicity
 _atom_site_fract_x
 _atom_site_fract_y
 _atom_site_fract_z
 _atom_site_occupancy
  Nd  Nd0  1  0.000000  0.000000  0.500000  1
  Nd  Nd1  1  0.000000  0.000000  0.000000  1
  Nd  Nd2  1  0.518242  0.063328  0.250000  1
  Nd  Nd3  1  0.936672  0.481758  0.750000  1
  Nd  Nd4  1  0.481758  0.936672  0.750000  1
  Nd  Nd5  1  0.063328  0.518242  0.250000  1
  Sb  Sb6  1  0.500000  0.500000  0.500000  1
  Sb  Sb7  1  0.500000  0.500000  0.000000  1
  O  O8  1  0.439496  0.186817  0.532751  1
  O  O9  1  0.813183  0.560504  0.467249  1
  O  O10  1  0.439496  0.186817  0.967249  1
  O  O11  1  0.813183  0.560504  0.032751  1
  O  O12  1  0.560504  0.813183  0.467249  1
  O  O13  1  0.186817  0.439496  0.532751  1
  O  O14  1  0.560504  0.813183  0.032751  1
  O  O15  1  0.186817  0.439496  0.967249  1
  O  O16  1  0.151837  0.887946  0.250000  1
  O  O17  1  0.112054  0.848163  0.750000  1
  O  O18  1  0.848163  0.112054  0.750000  1
  O  O19  1  0.887946  0.151837  0.250000  1
  O  O20  1  0.420396  0.420396  0.250000  1
  O  O21  1  0.579604  0.579604  0.750000  1
