# generated using pymatgen
data_Li3Cu4NiO8
_symmetry_space_group_name_H-M   'P 1'
_cell_length_a   6.17974272
_cell_length_b   6.17974272
_cell_length_c   5.59176823
_cell_angle_alpha   64.72407690
_cell_angle_beta   115.27592310
_cell_angle_gamma   126.08294402
_symmetry_Int_Tables_number   1
_chemical_formula_structural   Li3Cu4NiO8
_chemical_formula_sum   'Li3 Cu4 Ni1 O8'
_cell_volume   151.49016435
_cell_formula_units_Z   1
loop_
 _symmetry_equiv_pos_site_id
 _symmetry_equiv_pos_as_xyz
  1  'x, y, z'
loop_
 _atom_site_type_symbol
 _atom_site_label
 _atom_site_symmetry_multiplicity
 _atom_site_fract_x
 _atom_site_fract_y
 _atom_site_fract_z
 _atom_site_occupancy
  Li  Li0  1  0.500000  1.000000  0.000000  1
  Li  Li1  1  0.000000  0.000000  0.500000  1
  Li  Li2  1  0.000000  0.500000  0.000000  1
  Cu  Cu3  1  0.500000  0.500000  0.500000  1
  Cu  Cu4  1  0.000000  0.000000  0.000000  1
  Cu  Cu5  1  0.500000  1.000000  0.500000  1
  Cu  Cu6  1  0.000000  0.500000  0.500000  1
  Ni  Ni7  1  0.500000  0.500000  0.000000  1
  O  O8  1  0.719188  0.280812  0.255774  1
  O  O9  1  0.295890  0.230677  0.769880  1
  O  O10  1  0.769323  0.704110  0.769880  1
  O  O11  1  0.201000  0.799000  0.240118  1
  O  O12  1  0.799000  0.201000  0.759882  1
  O  O13  1  0.230677  0.295890  0.230120  1
  O  O14  1  0.704110  0.769323  0.230120  1
  O  O15  1  0.280812  0.719188  0.744226  1
