# generated using pymatgen
data_Fe5O3F7
_symmetry_space_group_name_H-M   'P 1'
_cell_length_a   4.80851613
_cell_length_b   4.81453118
_cell_length_c   15.61526123
_cell_angle_alpha   89.87063753
_cell_angle_beta   89.78812729
_cell_angle_gamma   89.36608908
_symmetry_Int_Tables_number   1
_chemical_formula_structural   Fe5O3F7
_chemical_formula_sum   'Fe10 O6 F14'
_cell_volume   361.47953660
_cell_formula_units_Z   2
loop_
 _symmetry_equiv_pos_site_id
 _symmetry_equiv_pos_as_xyz
  1  'x, y, z'
loop_
 _atom_site_type_symbol
 _atom_site_label
 _atom_site_symmetry_multiplicity
 _atom_site_fract_x
 _atom_site_fract_y
 _atom_site_fract_z
 _atom_site_occupancy
  Fe  Fe0  1  0.995984  0.002353  0.998893  1
  Fe  Fe1  1  0.038219  0.977371  0.193560  1
  Fe  Fe2  1  0.962922  0.036905  0.399849  1
  Fe  Fe3  1  0.021265  0.959029  0.606177  1
  Fe  Fe4  1  0.976740  0.982215  0.801704  1
  Fe  Fe5  1  0.463662  0.471908  0.105290  1
  Fe  Fe6  1  0.492720  0.500170  0.500033  1
  Fe  Fe7  1  0.499955  0.506739  0.299678  1
  Fe  Fe8  1  0.517835  0.525216  0.694229  1
  Fe  Fe9  1  0.525457  0.527104  0.900458  1
  O  O10  1  0.821982  0.814466  0.701474  1
  O  O11  1  0.817286  0.826274  0.902787  1
  O  O12  1  0.308231  0.690896  0.209296  1
  O  O13  1  0.305575  0.688758  0.590345  1
  O  O14  1  0.665507  0.334123  0.399649  1
  O  O15  1  0.178283  0.169532  0.096326  1
  F  F16  1  0.798479  0.788754  0.100913  1
  F  F17  1  0.802795  0.806245  0.294635  1
  F  F18  1  0.799600  0.800135  0.503958  1
  F  F19  1  0.291400  0.701442  0.000335  1
  F  F20  1  0.284199  0.716394  0.399893  1
  F  F21  1  0.298817  0.710826  0.799948  1
  F  F22  1  0.699638  0.298629  0.002369  1
  F  F23  1  0.713971  0.284875  0.209534  1
  F  F24  1  0.714735  0.282705  0.590086  1
  F  F25  1  0.705574  0.301937  0.798397  1
  F  F26  1  0.194365  0.195276  0.505462  1
  F  F27  1  0.198946  0.199554  0.295483  1
  F  F28  1  0.200428  0.206177  0.898184  1
  F  F29  1  0.205433  0.193990  0.701056  1
