# generated using pymatgen
data_Li2NbV3O8
_symmetry_space_group_name_H-M   'P 1'
_cell_length_a   6.09703230
_cell_length_b   6.09703230
_cell_length_c   6.09703230
_cell_angle_alpha   59.60911096
_cell_angle_beta   59.60911096
_cell_angle_gamma   59.60911096
_symmetry_Int_Tables_number   1
_chemical_formula_structural   Li2NbV3O8
_chemical_formula_sum   'Li2 Nb1 V3 O8'
_cell_volume   158.84187156
_cell_formula_units_Z   1
loop_
 _symmetry_equiv_pos_site_id
 _symmetry_equiv_pos_as_xyz
  1  'x, y, z'
loop_
 _atom_site_type_symbol
 _atom_site_label
 _atom_site_symmetry_multiplicity
 _atom_site_fract_x
 _atom_site_fract_y
 _atom_site_fract_z
 _atom_site_occupancy
  Li  Li0  1  0.872053  0.872053  0.872053  1
  Li  Li1  1  0.127947  0.127947  0.127947  1
  Nb  Nb2  1  0.500000  0.500000  0.500000  1
  V  V3  1  0.500000  0.500000  0.000000  1
  V  V4  1  0.000000  0.500000  0.500000  1
  V  V5  1  0.500000  0.000000  0.500000  1
  O  O6  1  0.734842  0.734842  0.734842  1
  O  O7  1  0.735724  0.280571  0.735724  1
  O  O8  1  0.280571  0.735724  0.735724  1
  O  O9  1  0.735724  0.735724  0.280571  1
  O  O10  1  0.264276  0.264276  0.719429  1
  O  O11  1  0.719429  0.264276  0.264276  1
  O  O12  1  0.264276  0.719429  0.264276  1
  O  O13  1  0.265158  0.265158  0.265158  1
