# generated using pymatgen
data_LaTi6O12
_symmetry_space_group_name_H-M   'P 1'
_cell_length_a   8.27150001
_cell_length_b   8.27150001
_cell_length_c   9.78885368
_cell_angle_alpha   55.12890199
_cell_angle_beta   124.87109801
_cell_angle_gamma   114.18421665
_symmetry_Int_Tables_number   1
_chemical_formula_structural   LaTi6O12
_chemical_formula_sum   'La2 Ti12 O24'
_cell_volume   447.38777018
_cell_formula_units_Z   2
loop_
 _symmetry_equiv_pos_site_id
 _symmetry_equiv_pos_as_xyz
  1  'x, y, z'
loop_
 _atom_site_type_symbol
 _atom_site_label
 _atom_site_symmetry_multiplicity
 _atom_site_fract_x
 _atom_site_fract_y
 _atom_site_fract_z
 _atom_site_occupancy
  La  La0  1  0.231351  0.231351  0.000000  1
  La  La1  1  0.768649  0.768649  0.000000  1
  Ti  Ti2  1  0.690378  0.980238  0.528756  1
  Ti  Ti3  1  0.170823  0.829177  0.821361  1
  Ti  Ti4  1  0.829177  0.170823  0.178639  1
  Ti  Ti5  1  0.167911  0.502329  0.185015  1
  Ti  Ti6  1  0.309622  0.019762  0.471244  1
  Ti  Ti7  1  0.645262  0.354738  0.465788  1
  Ti  Ti8  1  0.019762  0.309622  0.528756  1
  Ti  Ti9  1  0.354738  0.645262  0.534212  1
  Ti  Ti10  1  0.832089  0.497671  0.814985  1
  Ti  Ti11  1  0.502329  0.167911  0.814985  1
  Ti  Ti12  1  0.497671  0.832089  0.185015  1
  Ti  Ti13  1  0.980238  0.690378  0.471244  1
  O  O14  1  0.846938  0.153062  0.662875  1
  O  O15  1  0.478145  0.861880  0.948619  1
  O  O16  1  0.850249  0.149751  0.392681  1
  O  O17  1  0.149751  0.850249  0.607319  1
  O  O18  1  0.485051  0.182307  0.605573  1
  O  O19  1  0.521855  0.138120  0.051381  1
  O  O20  1  0.861880  0.478145  0.051381  1
  O  O21  1  0.786909  0.879522  0.269894  1
  O  O22  1  0.120478  0.213091  0.269894  1
  O  O23  1  0.454778  0.545222  0.278647  1
  O  O24  1  0.179024  0.478911  0.670283  1
  O  O25  1  0.521089  0.820976  0.670283  1
  O  O26  1  0.153062  0.846938  0.337125  1
  O  O27  1  0.478911  0.179024  0.329717  1
  O  O28  1  0.879522  0.786909  0.730106  1
  O  O29  1  0.213091  0.120478  0.730106  1
  O  O30  1  0.545222  0.454778  0.721353  1
  O  O31  1  0.138120  0.521855  0.948619  1
  O  O32  1  0.805147  0.194853  0.946527  1
  O  O33  1  0.182307  0.485051  0.394427  1
  O  O34  1  0.514949  0.817693  0.394427  1
  O  O35  1  0.817693  0.514949  0.605573  1
  O  O36  1  0.194853  0.805147  0.053473  1
  O  O37  1  0.820976  0.521089  0.329717  1
