# generated using pymatgen
data_Li4Mn8O9F7
_symmetry_space_group_name_H-M   'P 1'
_cell_length_a   5.84151427
_cell_length_b   6.22150449
_cell_length_c   10.93901968
_cell_angle_alpha   75.12956477
_cell_angle_beta   74.83204715
_cell_angle_gamma   62.49478231
_symmetry_Int_Tables_number   1
_chemical_formula_structural   Li4Mn8O9F7
_chemical_formula_sum   'Li4 Mn8 O9 F7'
_cell_volume   336.02708496
_cell_formula_units_Z   1
loop_
 _symmetry_equiv_pos_site_id
 _symmetry_equiv_pos_as_xyz
  1  'x, y, z'
loop_
 _atom_site_type_symbol
 _atom_site_label
 _atom_site_symmetry_multiplicity
 _atom_site_fract_x
 _atom_site_fract_y
 _atom_site_fract_z
 _atom_site_occupancy
  Li  Li0  1  0.699933  0.640760  0.449158  1
  Li  Li1  1  0.820422  0.845150  0.056080  1
  Li  Li2  1  0.201487  0.135512  0.951570  1
  Li  Li3  1  0.293204  0.364927  0.550002  1
  Mn  Mn4  1  0.486750  0.509172  0.002449  1
  Mn  Mn5  1  0.240114  0.270942  0.242418  1
  Mn  Mn6  1  0.748647  0.248330  0.752547  1
  Mn  Mn7  1  0.246738  0.748331  0.245790  1
  Mn  Mn8  1  0.998344  0.001936  0.499124  1
  Mn  Mn9  1  0.251138  0.748196  0.748787  1
  Mn  Mn10  1  0.751213  0.747695  0.749401  1
  Mn  Mn11  1  0.747218  0.253127  0.249094  1
  O  O12  1  0.141531  0.644459  0.133044  1
  O  O13  1  0.908529  0.325505  0.360361  1
  O  O14  1  0.611914  0.616120  0.655546  1
  O  O15  1  0.115360  0.099076  0.161228  1
  O  O16  1  0.590818  0.174211  0.140243  1
  O  O17  1  0.408638  0.825039  0.859709  1
  O  O18  1  0.381063  0.405931  0.339580  1
  O  O19  1  0.092385  0.676136  0.635853  1
  O  O20  1  0.891716  0.878863  0.842249  1
  F  F21  1  0.615219  0.144086  0.616989  1
  F  F22  1  0.123130  0.144550  0.617106  1
  F  F23  1  0.642361  0.633019  0.122463  1
  F  F24  1  0.865068  0.865086  0.381741  1
  F  F25  1  0.373570  0.354836  0.880833  1
  F  F26  1  0.376721  0.841313  0.371028  1
  F  F27  1  0.876771  0.357690  0.885604  1
