# generated using pymatgen
data_Ni3OF5
_symmetry_space_group_name_H-M   'P 1'
_cell_length_a   6.63818945
_cell_length_b   3.08301527
_cell_length_c   10.52969062
_cell_angle_alpha   90.00000000
_cell_angle_beta   108.28104487
_cell_angle_gamma   90.00000000
_symmetry_Int_Tables_number   1
_chemical_formula_structural   Ni3OF5
_chemical_formula_sum   'Ni6 O2 F10'
_cell_volume   204.62057538
_cell_formula_units_Z   2
loop_
 _symmetry_equiv_pos_site_id
 _symmetry_equiv_pos_as_xyz
  1  'x, y, z'
loop_
 _atom_site_type_symbol
 _atom_site_label
 _atom_site_symmetry_multiplicity
 _atom_site_fract_x
 _atom_site_fract_y
 _atom_site_fract_z
 _atom_site_occupancy
  Ni  Ni0  1  0.007437  0.000000  0.003331  1
  Ni  Ni1  1  0.489377  0.500000  0.996612  1
  Ni  Ni2  1  0.834349  0.500000  0.668729  1
  Ni  Ni3  1  0.667317  0.000000  0.333089  1
  Ni  Ni4  1  0.329669  0.000000  0.657953  1
  Ni  Ni5  1  0.168780  0.500000  0.337493  1
  O  O6  1  0.302125  0.000000  0.998540  1
  O  O7  1  0.268696  0.500000  0.536172  1
  F  F8  1  0.933395  0.500000  0.870289  1
  F  F9  1  0.365510  0.000000  0.333312  1
  F  F10  1  0.697566  0.000000  0.998877  1
  F  F11  1  0.029824  0.000000  0.667496  1
  F  F12  1  0.396136  0.500000  0.793671  1
  F  F13  1  0.733001  0.500000  0.465750  1
  F  F14  1  0.602110  0.500000  0.201750  1
  F  F15  1  0.969656  0.000000  0.335131  1
  F  F16  1  0.637637  0.000000  0.666076  1
  F  F17  1  0.067415  0.500000  0.135727  1
