# generated using pymatgen
data_CoPO4
_symmetry_space_group_name_H-M   'P 1'
_cell_length_a   9.06732769
_cell_length_b   5.42833526
_cell_length_c   17.90955931
_cell_angle_alpha   90.00000000
_cell_angle_beta   92.24300157
_cell_angle_gamma   90.00000000
_symmetry_Int_Tables_number   1
_chemical_formula_structural   CoPO4
_chemical_formula_sum   'Co8 P8 O32'
_cell_volume   880.84197051
_cell_formula_units_Z   8
loop_
 _symmetry_equiv_pos_site_id
 _symmetry_equiv_pos_as_xyz
  1  'x, y, z'
loop_
 _atom_site_type_symbol
 _atom_site_label
 _atom_site_symmetry_multiplicity
 _atom_site_fract_x
 _atom_site_fract_y
 _atom_site_fract_z
 _atom_site_occupancy
  Co  Co0  1  0.417701  0.263594  0.408632  1
  Co  Co1  1  0.905252  0.722346  0.337673  1
  Co  Co2  1  0.094748  0.222346  0.162327  1
  Co  Co3  1  0.582299  0.763594  0.091368  1
  Co  Co4  1  0.417701  0.236406  0.908632  1
  Co  Co5  1  0.905252  0.777654  0.837673  1
  Co  Co6  1  0.094748  0.277654  0.662327  1
  Co  Co7  1  0.582299  0.736406  0.591368  1
  P  P8  1  0.579316  0.759525  0.404943  1
  P  P9  1  0.090393  0.225816  0.344232  1
  P  P10  1  0.909607  0.725816  0.155768  1
  P  P11  1  0.420684  0.259525  0.095057  1
  P  P12  1  0.579316  0.740475  0.904943  1
  P  P13  1  0.090393  0.274184  0.844232  1
  P  P14  1  0.909607  0.774184  0.655768  1
  P  P15  1  0.420684  0.240475  0.595057  1
  O  O16  1  0.550912  0.749432  0.488754  1
  O  O17  1  0.215889  0.315394  0.398584  1
  O  O18  1  0.744953  0.799748  0.393399  1
  O  O19  1  0.487590  0.972458  0.369250  1
  O  O20  1  0.527263  0.515666  0.366851  1
  O  O21  1  0.050376  0.956561  0.363039  1
  O  O22  1  0.954197  0.394184  0.353888  1
  O  O23  1  0.144978  0.244406  0.263750  1
  O  O24  1  0.855022  0.744406  0.236250  1
  O  O25  1  0.045803  0.894184  0.146112  1
  O  O26  1  0.949624  0.456561  0.136961  1
  O  O27  1  0.472737  0.015666  0.133149  1
  O  O28  1  0.512410  0.472458  0.130750  1
  O  O29  1  0.255047  0.299748  0.106601  1
  O  O30  1  0.784111  0.815394  0.101416  1
  O  O31  1  0.449088  0.249432  0.011246  1
  O  O32  1  0.550912  0.750568  0.988754  1
  O  O33  1  0.215889  0.184606  0.898584  1
  O  O34  1  0.744953  0.700252  0.893399  1
  O  O35  1  0.487590  0.527542  0.869250  1
  O  O36  1  0.527263  0.984334  0.866851  1
  O  O37  1  0.050376  0.543439  0.863039  1
  O  O38  1  0.954197  0.105816  0.853888  1
  O  O39  1  0.144978  0.255594  0.763750  1
  O  O40  1  0.855022  0.755594  0.736250  1
  O  O41  1  0.045803  0.605816  0.646112  1
  O  O42  1  0.949624  0.043439  0.636961  1
  O  O43  1  0.472737  0.484334  0.633149  1
  O  O44  1  0.512410  0.027542  0.630750  1
  O  O45  1  0.255047  0.200252  0.606601  1
  O  O46  1  0.784111  0.684606  0.601416  1
  O  O47  1  0.449088  0.250568  0.511246  1
