# generated using pymatgen
data_Na3CuO2
_symmetry_space_group_name_H-M   'P 1'
_cell_length_a   10.96477397
_cell_length_b   10.98943519
_cell_length_c   11.88857643
_cell_angle_alpha   90.00000000
_cell_angle_beta   90.00000000
_cell_angle_gamma   90.00000000
_symmetry_Int_Tables_number   1
_chemical_formula_structural   Na3CuO2
_chemical_formula_sum   'Na48 Cu16 O32'
_cell_volume   1432.53390553
_cell_formula_units_Z   16
loop_
 _symmetry_equiv_pos_site_id
 _symmetry_equiv_pos_as_xyz
  1  'x, y, z'
loop_
 _atom_site_type_symbol
 _atom_site_label
 _atom_site_symmetry_multiplicity
 _atom_site_fract_x
 _atom_site_fract_y
 _atom_site_fract_z
 _atom_site_occupancy
  Na  Na0  1  0.010354  0.292713  0.004310  1
  Na  Na1  1  0.001336  0.788340  0.770999  1
  Na  Na2  1  0.014327  0.498341  0.432798  1
  Na  Na3  1  0.025606  0.225311  0.498173  1
  Na  Na4  1  0.047841  0.252696  0.243526  1
  Na  Na5  1  0.070363  0.078811  0.869601  1
  Na  Na6  1  0.194462  0.805204  0.134250  1
  Na  Na7  1  0.204822  0.700263  0.348050  1
  Na  Na8  1  0.209447  0.988011  0.490990  1
  Na  Na9  1  0.220653  0.519500  0.005928  1
  Na  Na10  1  0.232334  0.536228  0.742683  1
  Na  Na11  1  0.239568  0.038287  0.236852  1
  Na  Na12  1  0.260432  0.961713  0.736852  1
  Na  Na13  1  0.267666  0.463772  0.242683  1
  Na  Na14  1  0.279347  0.480500  0.505928  1
  Na  Na15  1  0.290553  0.011989  0.990990  1
  Na  Na16  1  0.295178  0.299737  0.848050  1
  Na  Na17  1  0.305538  0.194796  0.634250  1
  Na  Na18  1  0.429637  0.921189  0.369601  1
  Na  Na19  1  0.452159  0.747304  0.743526  1
  Na  Na20  1  0.474394  0.774689  0.998173  1
  Na  Na21  1  0.485673  0.501659  0.932798  1
  Na  Na22  1  0.498664  0.211660  0.270999  1
  Na  Na23  1  0.489646  0.707287  0.504310  1
  Na  Na24  1  0.510354  0.207287  0.995690  1
  Na  Na25  1  0.501336  0.711660  0.229001  1
  Na  Na26  1  0.514327  0.001659  0.567202  1
  Na  Na27  1  0.525606  0.274689  0.501827  1
  Na  Na28  1  0.547841  0.247304  0.756474  1
  Na  Na29  1  0.570363  0.421189  0.130399  1
  Na  Na30  1  0.694462  0.694796  0.865750  1
  Na  Na31  1  0.704822  0.799737  0.651950  1
  Na  Na32  1  0.709447  0.511989  0.509010  1
  Na  Na33  1  0.720653  0.980500  0.994072  1
  Na  Na34  1  0.732334  0.963772  0.257317  1
  Na  Na35  1  0.739568  0.461713  0.763148  1
  Na  Na36  1  0.760432  0.538287  0.263148  1
  Na  Na37  1  0.767666  0.036228  0.757317  1
  Na  Na38  1  0.779347  0.019500  0.494072  1
  Na  Na39  1  0.790553  0.488011  0.009010  1
  Na  Na40  1  0.795178  0.200263  0.151950  1
  Na  Na41  1  0.805538  0.305204  0.365750  1
  Na  Na42  1  0.929637  0.578811  0.630399  1
  Na  Na43  1  0.952159  0.752696  0.256474  1
  Na  Na44  1  0.974394  0.725311  0.001827  1
  Na  Na45  1  0.985673  0.998341  0.067202  1
  Na  Na46  1  0.998664  0.288340  0.729001  1
  Na  Na47  1  0.989646  0.792713  0.495690  1
  Cu  Cu48  1  0.002822  0.505101  0.167560  1
  Cu  Cu49  1  0.000675  0.009378  0.645705  1
  Cu  Cu50  1  0.230032  0.762928  0.901022  1
  Cu  Cu51  1  0.236453  0.744674  0.585534  1
  Cu  Cu52  1  0.263547  0.255326  0.085534  1
  Cu  Cu53  1  0.269968  0.237072  0.401022  1
  Cu  Cu54  1  0.499325  0.990622  0.145705  1
  Cu  Cu55  1  0.497178  0.494899  0.667560  1
  Cu  Cu56  1  0.502822  0.994899  0.832440  1
  Cu  Cu57  1  0.500675  0.490622  0.354295  1
  Cu  Cu58  1  0.730032  0.737072  0.098978  1
  Cu  Cu59  1  0.736453  0.755326  0.414466  1
  Cu  Cu60  1  0.763547  0.244674  0.914466  1
  Cu  Cu61  1  0.769968  0.262928  0.598978  1
  Cu  Cu62  1  0.999325  0.509378  0.854295  1
  Cu  Cu63  1  0.997178  0.005101  0.332440  1
  O  O64  1  0.113634  0.887104  0.331326  1
  O  O65  1  0.119722  0.120531  0.664763  1
  O  O66  1  0.117555  0.880482  0.931626  1
  O  O67  1  0.118675  0.621962  0.172223  1
  O  O68  1  0.122305  0.626581  0.568786  1
  O  O69  1  0.116821  0.395240  0.861252  1
  O  O70  1  0.143701  0.140312  0.085566  1
  O  O71  1  0.154401  0.352934  0.386707  1
  O  O72  1  0.345599  0.647066  0.886707  1
  O  O73  1  0.356299  0.859688  0.585566  1
  O  O74  1  0.383179  0.604760  0.361252  1
  O  O75  1  0.377695  0.373419  0.068786  1
  O  O76  1  0.381325  0.378038  0.672223  1
  O  O77  1  0.382445  0.119518  0.431626  1
  O  O78  1  0.380278  0.879469  0.164763  1
  O  O79  1  0.386366  0.112896  0.831326  1
  O  O80  1  0.613634  0.612896  0.668674  1
  O  O81  1  0.619722  0.379469  0.335237  1
  O  O82  1  0.617555  0.619518  0.068374  1
  O  O83  1  0.618675  0.878038  0.827777  1
  O  O84  1  0.622305  0.873419  0.431214  1
  O  O85  1  0.616821  0.104760  0.138748  1
  O  O86  1  0.643701  0.359688  0.914434  1
  O  O87  1  0.654401  0.147066  0.613293  1
  O  O88  1  0.845599  0.852934  0.113293  1
  O  O89  1  0.856299  0.640312  0.414434  1
  O  O90  1  0.883179  0.895240  0.638748  1
  O  O91  1  0.877695  0.126581  0.931214  1
  O  O92  1  0.881325  0.121962  0.327777  1
  O  O93  1  0.882445  0.380482  0.568374  1
  O  O94  1  0.880278  0.620531  0.835237  1
  O  O95  1  0.886366  0.387104  0.168674  1
