# generated using pymatgen
data_Li4Ti4Mn(Co2O9)2
_symmetry_space_group_name_H-M   'P 1'
_cell_length_a   2.88783965
_cell_length_b   9.00908088
_cell_length_c   24.67093154
_cell_angle_alpha   90.00000000
_cell_angle_beta   90.00000000
_cell_angle_gamma   90.00000000
_symmetry_Int_Tables_number   1
_chemical_formula_structural   Li4Ti4Mn(Co2O9)2
_chemical_formula_sum   'Li8 Ti8 Mn2 Co8 O36'
_cell_volume   641.85822166
_cell_formula_units_Z   2
loop_
 _symmetry_equiv_pos_site_id
 _symmetry_equiv_pos_as_xyz
  1  'x, y, z'
loop_
 _atom_site_type_symbol
 _atom_site_label
 _atom_site_symmetry_multiplicity
 _atom_site_fract_x
 _atom_site_fract_y
 _atom_site_fract_z
 _atom_site_occupancy
  Li  Li0  1  0.000000  0.178194  0.994055  1
  Li  Li1  1  0.000000  0.203466  0.197863  1
  Li  Li2  1  0.000000  0.296534  0.697863  1
  Li  Li3  1  0.000000  0.321806  0.494055  1
  Li  Li4  1  0.000000  0.678194  0.505945  1
  Li  Li5  1  0.000000  0.703466  0.302137  1
  Li  Li6  1  0.000000  0.796534  0.802137  1
  Li  Li7  1  0.000000  0.821806  0.005945  1
  Ti  Ti8  1  0.000000  0.017861  0.102971  1
  Ti  Ti9  1  0.500000  0.152651  0.806368  1
  Ti  Ti10  1  0.500000  0.347349  0.306368  1
  Ti  Ti11  1  0.000000  0.482139  0.602971  1
  Ti  Ti12  1  0.000000  0.517861  0.397029  1
  Ti  Ti13  1  0.500000  0.652651  0.693632  1
  Ti  Ti14  1  0.500000  0.847349  0.193632  1
  Ti  Ti15  1  0.000000  0.982139  0.897029  1
  Mn  Mn16  1  0.000000  0.000000  0.500000  1
  Mn  Mn17  1  0.000000  0.500000  0.000000  1
  Co  Co18  1  0.000000  0.010303  0.314531  1
  Co  Co19  1  0.500000  0.135814  0.585116  1
  Co  Co20  1  0.500000  0.364186  0.085116  1
  Co  Co21  1  0.000000  0.489697  0.814531  1
  Co  Co22  1  0.000000  0.510303  0.185469  1
  Co  Co23  1  0.500000  0.635814  0.914884  1
  Co  Co24  1  0.500000  0.864186  0.414884  1
  Co  Co25  1  0.000000  0.989697  0.685469  1
  O  O26  1  0.000000  0.002013  0.422172  1
  O  O27  1  0.000000  0.997987  0.577828  1
  O  O28  1  0.500000  0.037514  0.943685  1
  O  O29  1  0.500000  0.056301  0.161443  1
  O  O30  1  0.500000  0.111918  0.660498  1
  O  O31  1  0.000000  0.117321  0.755315  1
  O  O32  1  0.500000  0.145449  0.505781  1
  O  O33  1  0.500000  0.134341  0.291212  1
  O  O34  1  0.000000  0.178052  0.858758  1
  O  O35  1  0.000000  0.222333  0.085334  1
  O  O36  1  0.000000  0.277667  0.585334  1
  O  O37  1  0.000000  0.321948  0.358758  1
  O  O38  1  0.500000  0.365659  0.791212  1
  O  O39  1  0.500000  0.354551  0.005781  1
  O  O40  1  0.000000  0.382679  0.255315  1
  O  O41  1  0.500000  0.388082  0.160498  1
  O  O42  1  0.500000  0.443699  0.661443  1
  O  O43  1  0.500000  0.462486  0.443685  1
  O  O44  1  0.000000  0.502013  0.077828  1
  O  O45  1  0.000000  0.497987  0.922172  1
  O  O46  1  0.500000  0.537514  0.556315  1
  O  O47  1  0.500000  0.556301  0.338557  1
  O  O48  1  0.500000  0.611918  0.839502  1
  O  O49  1  0.000000  0.617321  0.744685  1
  O  O50  1  0.500000  0.645449  0.994219  1
  O  O51  1  0.500000  0.634341  0.208788  1
  O  O52  1  0.000000  0.678052  0.641242  1
  O  O53  1  0.000000  0.722333  0.414666  1
  O  O54  1  0.000000  0.777667  0.914666  1
  O  O55  1  0.000000  0.821948  0.141242  1
  O  O56  1  0.500000  0.865659  0.708788  1
  O  O57  1  0.500000  0.854551  0.494219  1
  O  O58  1  0.000000  0.882679  0.244685  1
  O  O59  1  0.500000  0.888082  0.339502  1
  O  O60  1  0.500000  0.943699  0.838557  1
  O  O61  1  0.500000  0.962486  0.056315  1
