# generated using pymatgen
data_Ti3Mn2Ni(PO4)6
_symmetry_space_group_name_H-M   'P 1'
_cell_length_a   8.63726111
_cell_length_b   8.63726111
_cell_length_c   8.63726111
_cell_angle_alpha   59.94435027
_cell_angle_beta   59.94435027
_cell_angle_gamma   59.94435027
_symmetry_Int_Tables_number   1
_chemical_formula_structural   Ti3Mn2Ni(PO4)6
_chemical_formula_sum   'Ti3 Mn2 Ni1 P6 O24'
_cell_volume   455.05579963
_cell_formula_units_Z   1
loop_
 _symmetry_equiv_pos_site_id
 _symmetry_equiv_pos_as_xyz
  1  'x, y, z'
loop_
 _atom_site_type_symbol
 _atom_site_label
 _atom_site_symmetry_multiplicity
 _atom_site_fract_x
 _atom_site_fract_y
 _atom_site_fract_z
 _atom_site_occupancy
  Ti  Ti0  1  0.856176  0.856176  0.856176  1
  Ti  Ti1  1  0.645930  0.645930  0.645930  1
  Ti  Ti2  1  0.352821  0.352821  0.352821  1
  Mn  Mn3  1  0.004072  0.004072  0.004072  1
  Mn  Mn4  1  0.500639  0.500639  0.500639  1
  Ni  Ni5  1  0.143660  0.143660  0.143660  1
  P  P6  1  0.457108  0.044023  0.749371  1
  P  P7  1  0.044023  0.749371  0.457108  1
  P  P8  1  0.749371  0.457108  0.044023  1
  P  P9  1  0.248014  0.541247  0.955501  1
  P  P10  1  0.955501  0.248014  0.541247  1
  P  P11  1  0.541247  0.955501  0.248014  1
  O  O12  1  0.682869  0.508932  0.882475  1
  O  O13  1  0.508932  0.882475  0.682869  1
  O  O14  1  0.086084  0.738379  0.941150  1
  O  O15  1  0.882475  0.682869  0.508932  1
  O  O16  1  0.194054  0.386657  0.985743  1
  O  O17  1  0.415512  0.566945  0.763144  1
  O  O18  1  0.941150  0.086084  0.738379  1
  O  O19  1  0.763144  0.415512  0.566945  1
  O  O20  1  0.622557  0.998901  0.807641  1
  O  O21  1  0.566945  0.763144  0.415512  1
  O  O22  1  0.266946  0.053570  0.908475  1
  O  O23  1  0.998901  0.807641  0.622557  1
  O  O24  1  0.985743  0.194054  0.386657  1
  O  O25  1  0.738379  0.941150  0.086084  1
  O  O26  1  0.447064  0.235354  0.581932  1
  O  O27  1  0.386657  0.985743  0.194054  1
  O  O28  1  0.235354  0.581932  0.447064  1
  O  O29  1  0.053570  0.908475  0.266946  1
  O  O30  1  0.581932  0.447064  0.235354  1
  O  O31  1  0.807641  0.622557  0.998901  1
  O  O32  1  0.121331  0.306918  0.498807  1
  O  O33  1  0.908475  0.266946  0.053570  1
  O  O34  1  0.498807  0.121331  0.306918  1
  O  O35  1  0.306918  0.498807  0.121331  1
