# generated using pymatgen
data_VFe3Cu2(PO4)6
_symmetry_space_group_name_H-M   'P 1'
_cell_length_a   8.55712064
_cell_length_b   8.55712064
_cell_length_c   8.55712064
_cell_angle_alpha   60.36236133
_cell_angle_beta   60.36236133
_cell_angle_gamma   60.36236133
_symmetry_Int_Tables_number   1
_chemical_formula_structural   VFe3Cu2(PO4)6
_chemical_formula_sum   'V1 Fe3 Cu2 P6 O24'
_cell_volume   446.69718906
_cell_formula_units_Z   1
loop_
 _symmetry_equiv_pos_site_id
 _symmetry_equiv_pos_as_xyz
  1  'x, y, z'
loop_
 _atom_site_type_symbol
 _atom_site_label
 _atom_site_symmetry_multiplicity
 _atom_site_fract_x
 _atom_site_fract_y
 _atom_site_fract_z
 _atom_site_occupancy
  V  V0  1  0.143422  0.143422  0.143422  1
  Fe  Fe1  1  0.643967  0.643967  0.643967  1
  Fe  Fe2  1  0.855547  0.855547  0.855547  1
  Fe  Fe3  1  0.356338  0.356338  0.356338  1
  Cu  Cu4  1  0.997619  0.997619  0.997619  1
  Cu  Cu5  1  0.498847  0.498847  0.498847  1
  P  P6  1  0.956691  0.251128  0.543015  1
  P  P7  1  0.543015  0.956691  0.251128  1
  P  P8  1  0.251128  0.543015  0.956691  1
  P  P9  1  0.750589  0.457490  0.045153  1
  P  P10  1  0.457490  0.045153  0.750589  1
  P  P11  1  0.045153  0.750589  0.457490  1
  O  O12  1  0.502905  0.113413  0.313612  1
  O  O13  1  0.313611  0.502905  0.113413  1
  O  O14  1  0.113413  0.313611  0.502905  1
  O  O15  1  0.942915  0.085897  0.733804  1
  O  O16  1  0.009386  0.187418  0.373035  1
  O  O17  1  0.762439  0.413261  0.546528  1
  O  O18  1  0.733804  0.942915  0.085897  1
  O  O19  1  0.546528  0.762439  0.413261  1
  O  O20  1  0.813217  0.613893  0.006924  1
  O  O21  1  0.413261  0.546528  0.762439  1
  O  O22  1  0.919924  0.259953  0.064337  1
  O  O23  1  0.613893  0.006924  0.813217  1
  O  O24  1  0.373035  0.009386  0.187418  1
  O  O25  1  0.085897  0.733804  0.942915  1
  O  O26  1  0.589825  0.437403  0.241579  1
  O  O27  1  0.187418  0.373035  0.009386  1
  O  O28  1  0.437403  0.241579  0.589825  1
  O  O29  1  0.259953  0.064337  0.919924  1
  O  O30  1  0.241579  0.589825  0.437403  1
  O  O31  1  0.006924  0.813217  0.613893  1
  O  O32  1  0.064337  0.919924  0.259953  1
  O  O33  1  0.884863  0.696725  0.486952  1
  O  O34  1  0.696725  0.486952  0.884863  1
  O  O35  1  0.486952  0.884863  0.696725  1
