# generated using pymatgen
data_Sr2HfO4
_symmetry_space_group_name_H-M   'P 1'
_cell_length_a   13.75589856
_cell_length_b   13.75589856
_cell_length_c   13.75589856
_cell_angle_alpha   155.91987045
_cell_angle_beta   155.91987045
_cell_angle_gamma   34.31492568
_symmetry_Int_Tables_number   1
_chemical_formula_structural   Sr2HfO4
_chemical_formula_sum   'Sr8 Hf4 O16'
_cell_volume   432.87935975
_cell_formula_units_Z   4
loop_
 _symmetry_equiv_pos_site_id
 _symmetry_equiv_pos_as_xyz
  1  'x, y, z'
loop_
 _atom_site_type_symbol
 _atom_site_label
 _atom_site_symmetry_multiplicity
 _atom_site_fract_x
 _atom_site_fract_y
 _atom_site_fract_z
 _atom_site_occupancy
  Sr  Sr0  1  0.075375  0.575375  0.500000  1
  Sr  Sr1  1  0.174625  0.174625  0.000000  1
  Sr  Sr2  1  0.924625  0.424625  0.500000  1
  Sr  Sr3  1  0.325375  0.325375  0.000000  1
  Sr  Sr4  1  0.674625  0.674625  0.000000  1
  Sr  Sr5  1  0.575375  0.075375  0.500000  1
  Sr  Sr6  1  0.424625  0.924625  0.500000  1
  Sr  Sr7  1  0.825375  0.825375  0.000000  1
  Hf  Hf8  1  1.000000  1.000000  0.000000  1
  Hf  Hf9  1  0.250000  0.750000  0.500000  1
  Hf  Hf10  1  0.500000  0.500000  0.000000  1
  Hf  Hf11  1  0.750000  0.250000  0.500000  1
  O  O12  1  0.949328  0.949328  0.398656  1
  O  O13  1  0.050672  0.449328  0.000000  1
  O  O14  1  0.330533  0.830533  0.500000  1
  O  O15  1  0.080533  0.080533  0.000000  1
  O  O16  1  0.169467  0.669467  0.500000  1
  O  O17  1  0.919467  0.919467  0.000000  1
  O  O18  1  0.449328  0.050672  0.000000  1
  O  O19  1  0.199328  0.699328  0.898656  1
  O  O20  1  0.550672  0.550672  0.601344  1
  O  O21  1  0.300672  0.199328  0.500000  1
  O  O22  1  0.419467  0.419467  0.000000  1
  O  O23  1  0.580533  0.580533  0.000000  1
  O  O24  1  0.830533  0.330533  0.500000  1
  O  O25  1  0.669467  0.169467  0.500000  1
  O  O26  1  0.699328  0.800672  0.500000  1
  O  O27  1  0.800672  0.300672  0.101344  1
