# generated using pymatgen
data_Ba10Cu5O17
_symmetry_space_group_name_H-M   'P 1'
_cell_length_a   5.78843920
_cell_length_b   9.08359014
_cell_length_c   10.82128331
_cell_angle_alpha   93.78127379
_cell_angle_beta   92.08014085
_cell_angle_gamma   106.91096576
_symmetry_Int_Tables_number   1
_chemical_formula_structural   Ba10Cu5O17
_chemical_formula_sum   'Ba10 Cu5 O17'
_cell_volume   542.27398820
_cell_formula_units_Z   1
loop_
 _symmetry_equiv_pos_site_id
 _symmetry_equiv_pos_as_xyz
  1  'x, y, z'
loop_
 _atom_site_type_symbol
 _atom_site_label
 _atom_site_symmetry_multiplicity
 _atom_site_fract_x
 _atom_site_fract_y
 _atom_site_fract_z
 _atom_site_occupancy
  Ba  Ba0  1  0.409407  0.324817  0.881477  1
  Ba  Ba1  1  0.030756  0.529635  0.684587  1
  Ba  Ba2  1  0.778650  0.070562  0.717009  1
  Ba  Ba3  1  0.396928  0.272823  0.511955  1
  Ba  Ba4  1  0.969244  0.470365  0.315413  1
  Ba  Ba5  1  0.221350  0.929438  0.282991  1
  Ba  Ba6  1  0.603072  0.727177  0.488045  1
  Ba  Ba7  1  0.804269  0.127903  0.088736  1
  Ba  Ba8  1  0.590593  0.675183  0.118523  1
  Ba  Ba9  1  0.195731  0.872097  0.911264  1
  Cu  Cu10  1  0.612072  0.705570  0.795622  1
  Cu  Cu11  1  0.795714  0.101549  0.399104  1
  Cu  Cu12  1  0.204286  0.898451  0.600896  1
  Cu  Cu13  1  0.387928  0.294430  0.204378  1
  Cu  Cu14  1  0.000000  0.500000  0.000000  1
  O  O15  1  0.909509  0.322275  0.882347  1
  O  O16  1  0.541090  0.518141  0.690821  1
  O  O17  1  0.276078  0.085356  0.711136  1
  O  O18  1  0.905202  0.272388  0.526641  1
  O  O19  1  0.458910  0.481859  0.309179  1
  O  O20  1  0.403976  0.796147  0.704343  1
  O  O21  1  0.918297  0.807301  0.693109  1
  O  O22  1  0.500000  0.000000  0.500000  1
  O  O23  1  0.596024  0.203853  0.295657  1
  O  O24  1  0.081703  0.192699  0.306891  1
  O  O25  1  0.722102  0.414935  0.085409  1
  O  O26  1  0.094798  0.727612  0.473359  1
  O  O27  1  0.289723  0.132112  0.073935  1
  O  O28  1  0.723922  0.914644  0.288864  1
  O  O29  1  0.090491  0.677725  0.117653  1
  O  O30  1  0.710277  0.867888  0.926065  1
  O  O31  1  0.277898  0.585065  0.914591  1
