# generated using pymatgen
data_Ca13Si10H12(O17F5)2
_symmetry_space_group_name_H-M   'P 1'
_cell_length_a   13.51721557
_cell_length_b   13.51721557
_cell_length_c   13.51721557
_cell_angle_alpha   40.88008424
_cell_angle_beta   40.88008424
_cell_angle_gamma   40.88008424
_symmetry_Int_Tables_number   1
_chemical_formula_structural   Ca13Si10H12(O17F5)2
_chemical_formula_sum   'Ca13 Si10 H12 O34 F10'
_cell_volume   954.84121657
_cell_formula_units_Z   1
loop_
 _symmetry_equiv_pos_site_id
 _symmetry_equiv_pos_as_xyz
  1  'x, y, z'
loop_
 _atom_site_type_symbol
 _atom_site_label
 _atom_site_symmetry_multiplicity
 _atom_site_fract_x
 _atom_site_fract_y
 _atom_site_fract_z
 _atom_site_occupancy
  Ca  Ca0  1  0.000000  0.000000  0.000000  1
  Ca  Ca1  1  0.580127  0.162800  0.296273  1
  Ca  Ca2  1  0.162800  0.296273  0.580127  1
  Ca  Ca3  1  0.296273  0.580127  0.162800  1
  Ca  Ca4  1  0.419873  0.837200  0.703727  1
  Ca  Ca5  1  0.837200  0.703727  0.419873  1
  Ca  Ca6  1  0.703727  0.419873  0.837200  1
  Ca  Ca7  1  0.628990  0.456916  0.199131  1
  Ca  Ca8  1  0.456916  0.199131  0.628990  1
  Ca  Ca9  1  0.199131  0.628990  0.456916  1
  Ca  Ca10  1  0.371010  0.543084  0.800869  1
  Ca  Ca11  1  0.543084  0.800869  0.371010  1
  Ca  Ca12  1  0.800869  0.371010  0.543084  1
  Si  Si13  1  0.116754  0.116754  0.116754  1
  Si  Si14  1  0.883246  0.883246  0.883246  1
  Si  Si15  1  0.857287  0.987239  0.373356  1
  Si  Si16  1  0.987239  0.373356  0.857287  1
  Si  Si17  1  0.373356  0.857287  0.987239  1
  Si  Si18  1  0.142713  0.012761  0.626644  1
  Si  Si19  1  0.012761  0.626644  0.142713  1
  Si  Si20  1  0.626644  0.142713  0.012761  1
  Si  Si21  1  0.731581  0.731581  0.731581  1
  Si  Si22  1  0.268419  0.268419  0.268419  1
  H  H23  1  0.765125  0.544739  0.198658  1
  H  H24  1  0.544739  0.198658  0.765125  1
  H  H25  1  0.198658  0.765125  0.544739  1
  H  H26  1  0.234875  0.455261  0.801342  1
  H  H27  1  0.455261  0.801342  0.234875  1
  H  H28  1  0.801342  0.234875  0.455261  1
  H  H29  1  0.760688  0.697579  0.019560  1
  H  H30  1  0.697579  0.019560  0.760688  1
  H  H31  1  0.019560  0.760688  0.697579  1
  H  H32  1  0.239312  0.302421  0.980440  1
  H  H33  1  0.302421  0.980440  0.239312  1
  H  H34  1  0.980440  0.239312  0.302421  1
  O  O35  1  0.159839  0.159839  0.159839  1
  O  O36  1  0.840161  0.840161  0.840161  1
  O  O37  1  0.974004  0.282673  0.041466  1
  O  O38  1  0.282673  0.041466  0.974004  1
  O  O39  1  0.041466  0.974004  0.282673  1
  O  O40  1  0.025996  0.717327  0.958534  1
  O  O41  1  0.717327  0.958534  0.025996  1
  O  O42  1  0.958534  0.025996  0.717327  1
  O  O43  1  0.827139  0.561098  0.855474  1
  O  O44  1  0.561098  0.855474  0.827139  1
  O  O45  1  0.855474  0.827139  0.561098  1
  O  O46  1  0.172861  0.438902  0.144526  1
  O  O47  1  0.438902  0.144526  0.172861  1
  O  O48  1  0.144526  0.172861  0.438902  1
  O  O49  1  0.699833  0.163332  0.384386  1
  O  O50  1  0.163332  0.384386  0.699833  1
  O  O51  1  0.384386  0.699833  0.163332  1
  O  O52  1  0.300167  0.836668  0.615614  1
  O  O53  1  0.836668  0.615614  0.300167  1
  O  O54  1  0.615614  0.300167  0.836668  1
  O  O55  1  0.688110  0.688110  0.688110  1
  O  O56  1  0.311890  0.311890  0.311890  1
  O  O57  1  0.953258  0.281100  0.856747  1
  O  O58  1  0.281100  0.856747  0.953258  1
  O  O59  1  0.856747  0.953258  0.281100  1
  O  O60  1  0.046742  0.718900  0.143253  1
  O  O61  1  0.718900  0.143253  0.046742  1
  O  O62  1  0.143253  0.046742  0.718900  1
  O  O63  1  0.702192  0.623388  0.134235  1
  O  O64  1  0.623388  0.134235  0.702192  1
  O  O65  1  0.134235  0.702192  0.623388  1
  O  O66  1  0.297808  0.376612  0.865765  1
  O  O67  1  0.376612  0.865765  0.297808  1
  O  O68  1  0.865765  0.297808  0.376612  1
  F  F69  1  0.592477  0.421770  0.077173  1
  F  F70  1  0.421770  0.077173  0.592477  1
  F  F71  1  0.077173  0.592477  0.421770  1
  F  F72  1  0.407523  0.578230  0.922827  1
  F  F73  1  0.578230  0.922827  0.407523  1
  F  F74  1  0.922827  0.407523  0.578230  1
  F  F75  1  0.385329  0.385329  0.385329  1
  F  F76  1  0.614671  0.614671  0.614671  1
  F  F77  1  0.456285  0.456285  0.456285  1
  F  F78  1  0.543715  0.543715  0.543715  1
