# generated using pymatgen
data_Li6Mn3Ni(PO4)6
_symmetry_space_group_name_H-M   'P 1'
_cell_length_a   8.49806479
_cell_length_b   8.51006293
_cell_length_c   8.57857624
_cell_angle_alpha   61.60054735
_cell_angle_beta   62.31215272
_cell_angle_gamma   61.81406950
_symmetry_Int_Tables_number   1
_chemical_formula_structural   Li6Mn3Ni(PO4)6
_chemical_formula_sum   'Li6 Mn3 Ni1 P6 O24'
_cell_volume   457.39334179
_cell_formula_units_Z   1
loop_
 _symmetry_equiv_pos_site_id
 _symmetry_equiv_pos_as_xyz
  1  'x, y, z'
loop_
 _atom_site_type_symbol
 _atom_site_label
 _atom_site_symmetry_multiplicity
 _atom_site_fract_x
 _atom_site_fract_y
 _atom_site_fract_z
 _atom_site_occupancy
  Li  Li0  1  0.986921  0.004527  0.999631  1
  Li  Li1  1  0.248584  0.652459  0.852535  1
  Li  Li2  1  0.522945  0.497993  0.494450  1
  Li  Li3  1  0.779847  0.339108  0.147899  1
  Li  Li4  1  0.333948  0.165386  0.779884  1
  Li  Li5  1  0.154608  0.777350  0.340112  1
  Mn  Mn6  1  0.855861  0.861396  0.859097  1
  Mn  Mn7  1  0.640779  0.645476  0.637753  1
  Mn  Mn8  1  0.359201  0.352359  0.349083  1
  Ni  Ni9  1  0.145047  0.146899  0.147086  1
  P  P10  1  0.949276  0.548841  0.253273  1
  P  P11  1  0.555528  0.249058  0.941298  1
  P  P12  1  0.254224  0.953062  0.542942  1
  P  P13  1  0.749347  0.037991  0.459699  1
  P  P14  1  0.451384  0.747311  0.033873  1
  P  P15  1  0.035541  0.468094  0.755145  1
  O  O16  1  0.862875  0.515495  0.705080  1
  O  O17  1  0.687030  0.878035  0.494666  1
  O  O18  1  0.946947  0.737205  0.087032  1
  O  O19  1  0.468048  0.696520  0.873014  1
  O  O20  1  0.759806  0.567667  0.416506  1
  O  O21  1  0.967165  0.391195  0.200928  1
  O  O22  1  0.748062  0.089418  0.919833  1
  O  O23  1  0.557077  0.422811  0.753715  1
  O  O24  1  0.418574  0.755937  0.561088  1
  O  O25  1  0.799868  0.007395  0.621979  1
  O  O26  1  0.910841  0.050202  0.271767  1
  O  O27  1  0.622858  0.784255  0.000491  1
  O  O28  1  0.393143  0.196521  0.967090  1
  O  O29  1  0.110327  0.926778  0.739685  1
  O  O30  1  0.195322  0.971372  0.390601  1
  O  O31  1  0.591418  0.236846  0.430432  1
  O  O32  1  0.426889  0.586362  0.230127  1
  O  O33  1  0.263936  0.913033  0.052633  1
  O  O34  1  0.020373  0.627796  0.806094  1
  O  O35  1  0.227145  0.438461  0.601020  1
  O  O36  1  0.530893  0.304092  0.098209  1
  O  O37  1  0.042328  0.277820  0.919034  1
  O  O38  1  0.312582  0.117227  0.503480  1
  O  O39  1  0.113455  0.509243  0.312734  1
