# generated using pymatgen
data_Li4Co3OF8
_symmetry_space_group_name_H-M   'P 1'
_cell_length_a   5.09640487
_cell_length_b   5.09640487
_cell_length_c   11.51812747
_cell_angle_alpha   78.61348413
_cell_angle_beta   101.38651587
_cell_angle_gamma   147.33971233
_symmetry_Int_Tables_number   1
_chemical_formula_structural   Li4Co3OF8
_chemical_formula_sum   'Li4 Co3 O1 F8'
_cell_volume   157.99267624
_cell_formula_units_Z   1
loop_
 _symmetry_equiv_pos_site_id
 _symmetry_equiv_pos_as_xyz
  1  'x, y, z'
loop_
 _atom_site_type_symbol
 _atom_site_label
 _atom_site_symmetry_multiplicity
 _atom_site_fract_x
 _atom_site_fract_y
 _atom_site_fract_z
 _atom_site_occupancy
  Li  Li0  1  0.133707  0.866293  0.558122  1
  Li  Li1  1  0.229514  0.770486  0.873439  1
  Li  Li2  1  0.852115  0.147885  0.444913  1
  Li  Li3  1  0.006664  0.993336  0.993912  1
  Co  Co4  1  0.576225  0.423775  0.270348  1
  Co  Co5  1  0.760603  0.239397  0.122811  1
  Co  Co6  1  0.430187  0.569813  0.701700  1
  O  O7  1  0.135207  0.864793  0.164892  1
  F  F8  1  0.632159  0.367841  0.948274  1
  F  F9  1  0.086262  0.913738  0.725581  1
  F  F10  1  0.189451  0.810549  0.400713  1
  F  F11  1  0.790112  0.209888  0.606793  1
  F  F12  1  0.871433  0.128567  0.830963  1
  F  F13  1  0.916898  0.083102  0.286875  1
  F  F14  1  0.375647  0.624353  0.047866  1
  F  F15  1  0.486456  0.513544  0.523277  1
