# generated using pymatgen
data_Li4CrFe3O8
_symmetry_space_group_name_H-M   'P 1'
_cell_length_a   5.17891954
_cell_length_b   7.87996510
_cell_length_c   7.87989863
_cell_angle_alpha   81.80119821
_cell_angle_beta   83.74173811
_cell_angle_gamma   70.98706761
_symmetry_Int_Tables_number   1
_chemical_formula_structural   Li4CrFe3O8
_chemical_formula_sum   'Li8 Cr2 Fe6 O16'
_cell_volume   300.25227961
_cell_formula_units_Z   2
loop_
 _symmetry_equiv_pos_site_id
 _symmetry_equiv_pos_as_xyz
  1  'x, y, z'
loop_
 _atom_site_type_symbol
 _atom_site_label
 _atom_site_symmetry_multiplicity
 _atom_site_fract_x
 _atom_site_fract_y
 _atom_site_fract_z
 _atom_site_occupancy
  Li  Li0  1  0.500754  0.686855  0.937766  1
  Li  Li1  1  0.502344  0.436159  0.687556  1
  Li  Li2  1  0.497656  0.563841  0.312444  1
  Li  Li3  1  0.499521  0.063005  0.811685  1
  Li  Li4  1  0.500965  0.186779  0.438426  1
  Li  Li5  1  0.499246  0.313145  0.062234  1
  Li  Li6  1  0.499035  0.813221  0.561574  1
  Li  Li7  1  0.500479  0.936995  0.188315  1
  Cr  Cr8  1  0.999985  0.124622  0.624743  1
  Cr  Cr9  1  0.000015  0.875378  0.375257  1
  Fe  Fe10  1  0.000168  0.374669  0.874618  1
  Fe  Fe11  1  0.000000  0.500000  0.500000  1
  Fe  Fe12  1  0.999832  0.625331  0.125382  1
  Fe  Fe13  1  0.999192  0.249908  0.250468  1
  Fe  Fe14  1  0.000808  0.750092  0.749532  1
  Fe  Fe15  1  0.000000  0.000000  0.000000  1
  O  O16  1  0.229241  0.535665  0.906724  1
  O  O17  1  0.771019  0.589555  0.717679  1
  O  O18  1  0.227562  0.662005  0.530870  1
  O  O19  1  0.772661  0.213283  0.841426  1
  O  O20  1  0.227349  0.284332  0.656569  1
  O  O21  1  0.228981  0.410445  0.282321  1
  O  O22  1  0.772438  0.337995  0.469130  1
  O  O23  1  0.227315  0.912091  0.780957  1
  O  O24  1  0.225198  0.035404  0.408430  1
  O  O25  1  0.770759  0.464335  0.093276  1
  O  O26  1  0.774802  0.964596  0.591570  1
  O  O27  1  0.228970  0.160824  0.032329  1
  O  O28  1  0.772685  0.087909  0.219043  1
  O  O29  1  0.227339  0.786717  0.158574  1
  O  O30  1  0.772651  0.715668  0.343431  1
  O  O31  1  0.771030  0.839176  0.967671  1
