# generated using pymatgen
data_Li2Co2(SO4)3
_symmetry_space_group_name_H-M   'P 1'
_cell_length_a   7.84148228
_cell_length_b   7.84148228
_cell_length_c   8.80678022
_cell_angle_alpha   68.61643786
_cell_angle_beta   111.38356214
_cell_angle_gamma   113.18487391
_symmetry_Int_Tables_number   1
_chemical_formula_structural   Li2Co2(SO4)3
_chemical_formula_sum   'Li4 Co4 S6 O24'
_cell_volume   447.79291373
_cell_formula_units_Z   2
loop_
 _symmetry_equiv_pos_site_id
 _symmetry_equiv_pos_as_xyz
  1  'x, y, z'
loop_
 _atom_site_type_symbol
 _atom_site_label
 _atom_site_symmetry_multiplicity
 _atom_site_fract_x
 _atom_site_fract_y
 _atom_site_fract_z
 _atom_site_occupancy
  Li  Li0  1  0.137088  0.671405  0.555304  1
  Li  Li1  1  0.328595  0.862912  0.055304  1
  Li  Li2  1  0.671405  0.137088  0.944696  1
  Li  Li3  1  0.862912  0.328595  0.444696  1
  Co  Co4  1  0.126518  0.368865  0.983226  1
  Co  Co5  1  0.631135  0.873482  0.483226  1
  Co  Co6  1  0.368865  0.126518  0.516774  1
  Co  Co7  1  0.873482  0.631135  0.016774  1
  S  S8  1  0.460765  0.749829  0.822939  1
  S  S9  1  0.250171  0.539235  0.322939  1
  S  S10  1  0.058864  0.058864  0.750000  1
  S  S11  1  0.941136  0.941136  0.250000  1
  S  S12  1  0.749829  0.460765  0.677061  1
  S  S13  1  0.539235  0.250171  0.177061  1
  O  O14  1  0.048871  0.872448  0.884901  1
  O  O15  1  0.127552  0.951129  0.384901  1
  O  O16  1  0.497897  0.875953  0.928301  1
  O  O17  1  0.261847  0.612245  0.811373  1
  O  O18  1  0.457058  0.867625  0.639947  1
  O  O19  1  0.124047  0.502103  0.428301  1
  O  O20  1  0.096387  0.215811  0.822296  1
  O  O21  1  0.604878  0.651319  0.882916  1
  O  O22  1  0.387755  0.738153  0.311373  1
  O  O23  1  0.132375  0.542942  0.139947  1
  O  O24  1  0.784189  0.903613  0.322296  1
  O  O25  1  0.651319  0.604878  0.617084  1
  O  O26  1  0.348681  0.395122  0.382916  1
  O  O27  1  0.215811  0.096387  0.677704  1
  O  O28  1  0.867625  0.457058  0.860053  1
  O  O29  1  0.612245  0.261847  0.688627  1
  O  O30  1  0.395122  0.348681  0.117084  1
  O  O31  1  0.903613  0.784189  0.177704  1
  O  O32  1  0.875953  0.497897  0.571699  1
  O  O33  1  0.542942  0.132375  0.360053  1
  O  O34  1  0.738153  0.387755  0.188627  1
  O  O35  1  0.502103  0.124047  0.071699  1
  O  O36  1  0.872448  0.048871  0.615099  1
  O  O37  1  0.951129  0.127552  0.115099  1
