# generated using pymatgen
data_Sr3TeO6
_symmetry_space_group_name_H-M   'P 1'
_cell_length_a   11.91335172
_cell_length_b   11.91335172
_cell_length_c   11.91335172
_cell_angle_alpha   109.47122063
_cell_angle_beta   109.47122063
_cell_angle_gamma   109.47122063
_symmetry_Int_Tables_number   1
_chemical_formula_structural   Sr3TeO6
_chemical_formula_sum   'Sr24 Te8 O48'
_cell_volume   1301.60737283
_cell_formula_units_Z   8
loop_
 _symmetry_equiv_pos_site_id
 _symmetry_equiv_pos_as_xyz
  1  'x, y, z'
loop_
 _atom_site_type_symbol
 _atom_site_label
 _atom_site_symmetry_multiplicity
 _atom_site_fract_x
 _atom_site_fract_y
 _atom_site_fract_z
 _atom_site_occupancy
  Sr  Sr0  1  0.846119  0.152121  0.248726  1
  Sr  Sr1  1  0.693998  0.346119  0.097393  1
  Sr  Sr2  1  0.347879  0.193998  0.096605  1
  Sr  Sr3  1  0.597393  0.251274  0.403395  1
  Sr  Sr4  1  0.847879  0.751274  0.153881  1
  Sr  Sr5  1  0.902607  0.306002  0.653881  1
  Sr  Sr6  1  0.748726  0.596605  0.402607  1
  Sr  Sr7  1  0.193998  0.096605  0.347879  1
  Sr  Sr8  1  0.751274  0.153881  0.847879  1
  Sr  Sr9  1  0.403395  0.597393  0.251274  1
  Sr  Sr10  1  0.096605  0.347879  0.193998  1
  Sr  Sr11  1  0.346119  0.097393  0.693998  1
  Sr  Sr12  1  0.903395  0.652121  0.806002  1
  Sr  Sr13  1  0.653881  0.902607  0.306002  1
  Sr  Sr14  1  0.596605  0.402607  0.748726  1
  Sr  Sr15  1  0.806002  0.903395  0.652121  1
  Sr  Sr16  1  0.248726  0.846119  0.152121  1
  Sr  Sr17  1  0.251274  0.403395  0.597393  1
  Sr  Sr18  1  0.097393  0.693998  0.346119  1
  Sr  Sr19  1  0.402607  0.748726  0.596605  1
  Sr  Sr20  1  0.152121  0.248726  0.846119  1
  Sr  Sr21  1  0.652121  0.806002  0.903395  1
  Sr  Sr22  1  0.306002  0.653881  0.902607  1
  Sr  Sr23  1  0.153881  0.847879  0.751274  1
  Te  Te24  1  0.500000  0.000000  1.000000  1
  Te  Te25  1  0.000000  0.000000  0.000000  1
  Te  Te26  1  0.500000  1.000000  0.500000  1
  Te  Te27  1  0.500000  0.500000  0.000000  1
  Te  Te28  1  0.500000  0.500000  0.500000  1
  Te  Te29  1  0.000000  0.000000  0.500000  1
  Te  Te30  1  0.000000  0.500000  0.000000  1
  Te  Te31  1  1.000000  0.500000  0.500000  1
  O  O32  1  0.009635  0.113860  0.170382  1
  O  O33  1  0.666386  0.109741  0.001261  1
  O  O34  1  0.891519  0.390259  0.056644  1
  O  O35  1  0.556644  0.166386  0.165125  1
  O  O36  1  0.943356  0.108481  0.609741  1
  O  O37  1  0.895775  0.509635  0.339253  1
  O  O38  1  0.886140  0.829618  0.990365  1
  O  O39  1  0.839253  0.329618  0.443478  1
  O  O40  1  0.660747  0.104225  0.490365  1
  O  O41  1  0.386140  0.395775  0.056522  1
  O  O42  1  0.395775  0.056522  0.386140  1
  O  O43  1  0.670382  0.556522  0.160747  1
  O  O44  1  0.829618  0.990365  0.886140  1
  O  O45  1  0.501261  0.391519  0.334875  1
  O  O46  1  0.998739  0.333614  0.890259  1
  O  O47  1  0.556522  0.160747  0.670382  1
  O  O48  1  0.490365  0.660747  0.104225  1
  O  O49  1  0.943478  0.613860  0.604225  1
  O  O50  1  0.609741  0.943356  0.108481  1
  O  O51  1  0.890259  0.998739  0.333614  1
  O  O52  1  0.665125  0.498739  0.608481  1
  O  O53  1  0.834875  0.443356  0.833614  1
  O  O54  1  0.833614  0.834875  0.443356  1
  O  O55  1  0.391519  0.334875  0.501261  1
  O  O56  1  0.608481  0.665125  0.498739  1
  O  O57  1  0.166386  0.165125  0.556644  1
  O  O58  1  0.334875  0.501261  0.391519  1
  O  O59  1  0.109741  0.001261  0.666386  1
  O  O60  1  0.165125  0.556644  0.166386  1
  O  O61  1  0.390259  0.056644  0.891519  1
  O  O62  1  0.443478  0.839253  0.329618  1
  O  O63  1  0.056522  0.386140  0.395775  1
  O  O64  1  0.509635  0.339253  0.895775  1
  O  O65  1  0.001261  0.666386  0.109741  1
  O  O66  1  0.498739  0.608481  0.665125  1
  O  O67  1  0.604225  0.943478  0.613860  1
  O  O68  1  0.170382  0.009635  0.113860  1
  O  O69  1  0.329618  0.443478  0.839253  1
  O  O70  1  0.613860  0.604225  0.943478  1
  O  O71  1  0.339253  0.895775  0.509635  1
  O  O72  1  0.160747  0.670382  0.556522  1
  O  O73  1  0.113860  0.170382  0.009635  1
  O  O74  1  0.104225  0.490365  0.660747  1
  O  O75  1  0.056644  0.891519  0.390259  1
  O  O76  1  0.443356  0.833614  0.834875  1
  O  O77  1  0.108481  0.609741  0.943356  1
  O  O78  1  0.333614  0.890259  0.998739  1
  O  O79  1  0.990365  0.886140  0.829618  1
