# generated using pymatgen
data_Na4Fe2C4SO16
_symmetry_space_group_name_H-M   'P 1'
_cell_length_a   9.78402012
_cell_length_b   9.85956895
_cell_length_c   9.86520320
_cell_angle_alpha   119.60924005
_cell_angle_beta   90.35246090
_cell_angle_gamma   119.12754538
_symmetry_Int_Tables_number   1
_chemical_formula_structural   Na4Fe2C4SO16
_chemical_formula_sum   'Na8 Fe4 C8 S2 O32'
_cell_volume   683.57688573
_cell_formula_units_Z   2
loop_
 _symmetry_equiv_pos_site_id
 _symmetry_equiv_pos_as_xyz
  1  'x, y, z'
loop_
 _atom_site_type_symbol
 _atom_site_label
 _atom_site_symmetry_multiplicity
 _atom_site_fract_x
 _atom_site_fract_y
 _atom_site_fract_z
 _atom_site_occupancy
  Na  Na0  1  0.584851  0.335284  0.914370  1
  Na  Na1  1  0.822789  0.659031  0.087972  1
  Na  Na2  1  0.425813  0.087532  0.657503  1
  Na  Na3  1  0.591196  0.919475  0.350679  1
  Na  Na4  1  0.152606  0.324963  0.908510  1
  Na  Na5  1  0.154179  0.918760  0.909405  1
  Na  Na6  1  0.422296  0.659041  0.086365  1
  Na  Na7  1  0.163235  0.912104  0.337391  1
  Fe  Fe8  1  0.996899  0.003449  0.497306  1
  Fe  Fe9  1  0.997542  0.495530  0.502203  1
  Fe  Fe10  1  0.502915  0.501362  0.500929  1
  Fe  Fe11  1  0.996655  0.494082  0.000153  1
  C  C12  1  0.215063  0.284423  0.642043  1
  C  C13  1  0.859715  0.291690  0.285383  1
  C  C14  1  0.217251  0.287011  0.289182  1
  C  C15  1  0.211963  0.643488  0.282991  1
  C  C16  1  0.786734  0.713160  0.713387  1
  C  C17  1  0.788401  0.360762  0.713735  1
  C  C18  1  0.788093  0.717603  0.359510  1
  C  C19  1  0.141875  0.711750  0.714244  1
  S  S20  1  0.372838  0.123747  0.125145  1
  S  S21  1  0.624916  0.873518  0.873461  1
  O  O22  1  0.429377  0.058774  0.307552  1
  O  O23  1  0.187005  0.060861  0.063783  1
  O  O24  1  0.435979  0.060111  0.064906  1
  O  O25  1  0.428973  0.306844  0.056753  1
  O  O26  1  0.100104  0.312467  0.643512  1
  O  O27  1  0.856911  0.146351  0.397673  1
  O  O28  1  0.188665  0.138409  0.646534  1
  O  O29  1  0.866567  0.408662  0.314085  1
  O  O30  1  0.850598  0.319094  0.138218  1
  O  O31  1  0.358946  0.395690  0.644462  1
  O  O32  1  0.106764  0.142319  0.318272  1
  O  O33  1  0.181247  0.643143  0.395383  1
  O  O34  1  0.640786  0.352310  0.691293  1
  O  O35  1  0.810884  0.599649  0.860285  1
  O  O36  1  0.356547  0.318214  0.402930  1
  O  O37  1  0.099097  0.647044  0.138321  1
  O  O38  1  0.648085  0.684656  0.597945  1
  O  O39  1  0.903388  0.363286  0.854799  1
  O  O40  1  0.358085  0.647769  0.308540  1
  O  O41  1  0.188979  0.399902  0.142626  1
  O  O42  1  0.902966  0.853381  0.687205  1
  O  O43  1  0.816082  0.363958  0.598828  1
  O  O44  1  0.643942  0.605207  0.354710  1
  O  O45  1  0.148002  0.687327  0.859777  1
  O  O46  1  0.133735  0.593421  0.686739  1
  O  O47  1  0.815294  0.857659  0.364459  1
  O  O48  1  0.903701  0.691003  0.355035  1
  O  O49  1  0.147553  0.857926  0.600355  1
  O  O50  1  0.553340  0.932141  0.930979  1
  O  O51  1  0.564443  0.687288  0.940825  1
  O  O52  1  0.807985  0.928328  0.939980  1
  O  O53  1  0.564597  0.935497  0.691369  1
