# generated using pymatgen
data_Li4Co5Sb3O16
_symmetry_space_group_name_H-M   'P 1'
_cell_length_a   6.00700814
_cell_length_b   6.00700814
_cell_length_c   9.71541830
_cell_angle_alpha   89.51411765
_cell_angle_beta   90.48588235
_cell_angle_gamma   120.01890697
_symmetry_Int_Tables_number   1
_chemical_formula_structural   Li4Co5Sb3O16
_chemical_formula_sum   'Li4 Co5 Sb3 O16'
_cell_volume   303.53235066
_cell_formula_units_Z   1
loop_
 _symmetry_equiv_pos_site_id
 _symmetry_equiv_pos_as_xyz
  1  'x, y, z'
loop_
 _atom_site_type_symbol
 _atom_site_label
 _atom_site_symmetry_multiplicity
 _atom_site_fract_x
 _atom_site_fract_y
 _atom_site_fract_z
 _atom_site_occupancy
  Li  Li0  1  0.332163  0.667837  0.122251  1
  Li  Li1  1  0.020199  0.979801  0.009778  1
  Li  Li2  1  0.013328  0.986672  0.494811  1
  Li  Li3  1  0.668903  0.331097  0.601292  1
  Co  Co4  1  0.328333  0.671667  0.493222  1
  Co  Co5  1  0.167132  0.832868  0.783024  1
  Co  Co6  1  0.650309  0.349691  0.018606  1
  Co  Co7  1  0.337646  0.169487  0.285769  1
  Co  Co8  1  0.830513  0.662354  0.285769  1
  Sb  Sb9  1  0.165679  0.339065  0.785034  1
  Sb  Sb10  1  0.660935  0.834321  0.785034  1
  Sb  Sb11  1  0.830110  0.169890  0.284609  1
  O  O12  1  0.161322  0.314218  0.395744  1
  O  O13  1  0.486503  0.513497  0.664668  1
  O  O14  1  0.339911  0.660089  0.903280  1
  O  O15  1  0.991980  0.008020  0.678023  1
  O  O16  1  0.004030  0.995970  0.190989  1
  O  O17  1  0.685782  0.838678  0.395744  1
  O  O18  1  0.031187  0.510513  0.664244  1
  O  O19  1  0.489487  0.968813  0.664244  1
  O  O20  1  0.841737  0.158263  0.902861  1
  O  O21  1  0.159730  0.840270  0.385014  1
  O  O22  1  0.508988  0.037992  0.167209  1
  O  O23  1  0.962008  0.491012  0.167209  1
  O  O24  1  0.662313  0.337687  0.390657  1
  O  O25  1  0.317225  0.167429  0.896485  1
  O  O26  1  0.519119  0.480881  0.180056  1
  O  O27  1  0.832571  0.682775  0.896485  1
