# generated using pymatgen
data_Li6Mn5Fe(BO3)6
_symmetry_space_group_name_H-M   'P 1'
_cell_length_a   8.26485078
_cell_length_b   12.73968713
_cell_length_c   8.27513054
_cell_angle_alpha   90.00000000
_cell_angle_beta   119.94819518
_cell_angle_gamma   90.00000000
_symmetry_Int_Tables_number   1
_chemical_formula_structural   Li6Mn5Fe(BO3)6
_chemical_formula_sum   'Li12 Mn10 Fe2 B12 O36'
_cell_volume   754.96312225
_cell_formula_units_Z   2
loop_
 _symmetry_equiv_pos_site_id
 _symmetry_equiv_pos_as_xyz
  1  'x, y, z'
loop_
 _atom_site_type_symbol
 _atom_site_label
 _atom_site_symmetry_multiplicity
 _atom_site_fract_x
 _atom_site_fract_y
 _atom_site_fract_z
 _atom_site_occupancy
  Li  Li0  1  0.982427  0.500000  0.698661  1
  Li  Li1  1  0.982085  0.249830  0.698541  1
  Li  Li2  1  0.981783  0.000000  0.697995  1
  Li  Li3  1  0.982085  0.750170  0.698541  1
  Li  Li4  1  0.301386  0.500000  0.284137  1
  Li  Li5  1  0.301047  0.750193  0.283765  1
  Li  Li6  1  0.301594  0.000000  0.283947  1
  Li  Li7  1  0.301047  0.249807  0.283765  1
  Li  Li8  1  0.715524  0.750167  0.016572  1
  Li  Li9  1  0.715032  0.000000  0.016175  1
  Li  Li10  1  0.716097  0.500000  0.017122  1
  Li  Li11  1  0.715524  0.249833  0.016572  1
  Mn  Mn12  1  0.359346  0.375071  0.988033  1
  Mn  Mn13  1  0.360190  0.874953  0.988166  1
  Mn  Mn14  1  0.359346  0.624929  0.988033  1
  Mn  Mn15  1  0.360190  0.125047  0.988166  1
  Mn  Mn16  1  0.011954  0.875000  0.371789  1
  Mn  Mn17  1  0.011733  0.374961  0.371091  1
  Mn  Mn18  1  0.011733  0.625039  0.371091  1
  Mn  Mn19  1  0.011954  0.125000  0.371789  1
  Mn  Mn20  1  0.628866  0.373805  0.640811  1
  Mn  Mn21  1  0.628866  0.626195  0.640811  1
  Fe  Fe22  1  0.632667  0.875652  0.640594  1
  Fe  Fe23  1  0.632667  0.124348  0.640594  1
  B  B24  1  0.000150  0.374956  0.000091  1
  B  B25  1  0.000150  0.625044  0.000091  1
  B  B26  1  0.997839  0.875147  0.999546  1
  B  B27  1  0.997839  0.124853  0.999546  1
  B  B28  1  0.666584  0.248755  0.334406  1
  B  B29  1  0.666623  0.500000  0.333472  1
  B  B30  1  0.666584  0.751245  0.334406  1
  B  B31  1  0.667103  0.000000  0.335483  1
  B  B32  1  0.333528  0.500000  0.666649  1
  B  B33  1  0.334338  0.750734  0.666434  1
  B  B34  1  0.335608  0.000000  0.665831  1
  B  B35  1  0.334338  0.249266  0.666434  1
  O  O36  1  0.922502  0.625117  0.806696  1
  O  O37  1  0.922502  0.374883  0.806696  1
  O  O38  1  0.916662  0.875541  0.805137  1
  O  O39  1  0.916662  0.124459  0.805137  1
  O  O40  1  0.580525  0.246819  0.442165  1
  O  O41  1  0.580468  0.500000  0.440952  1
  O  O42  1  0.580525  0.753181  0.442165  1
  O  O43  1  0.581886  0.000000  0.443925  1
  O  O44  1  0.193748  0.374938  0.115852  1
  O  O45  1  0.191420  0.875041  0.112565  1
  O  O46  1  0.191420  0.124959  0.112565  1
  O  O47  1  0.193748  0.625062  0.115852  1
  O  O48  1  0.860085  0.250127  0.420158  1
  O  O49  1  0.860582  0.000000  0.420245  1
  O  O50  1  0.860240  0.500000  0.419635  1
  O  O51  1  0.860085  0.749873  0.420158  1
  O  O52  1  0.559223  0.249977  0.141003  1
  O  O53  1  0.559530  0.500000  0.139996  1
  O  O54  1  0.558921  0.000000  0.142010  1
  O  O55  1  0.559223  0.750023  0.141003  1
  O  O56  1  0.250615  0.500000  0.777654  1
  O  O57  1  0.253291  0.000000  0.777918  1
  O  O58  1  0.251586  0.750111  0.777801  1
  O  O59  1  0.251586  0.249889  0.777801  1
  O  O60  1  0.884289  0.374896  0.077879  1
  O  O61  1  0.884289  0.625104  0.077879  1
  O  O62  1  0.883833  0.875075  0.078939  1
  O  O63  1  0.883833  0.124925  0.078939  1
  O  O64  1  0.527268  0.500000  0.749242  1
  O  O65  1  0.527791  0.751457  0.747900  1
  O  O66  1  0.528855  0.000000  0.746143  1
  O  O67  1  0.527791  0.248543  0.747900  1
  O  O68  1  0.222300  0.750235  0.472818  1
  O  O69  1  0.222401  0.500000  0.473048  1
  O  O70  1  0.222183  0.000000  0.472260  1
  O  O71  1  0.222300  0.249765  0.472818  1
