# generated using pymatgen
data_DyP5O14
_symmetry_space_group_name_H-M   'P 1'
_cell_length_a   8.82140046
_cell_length_b   9.04379404
_cell_length_c   12.89497329
_cell_angle_alpha   90.00000000
_cell_angle_beta   90.00000000
_cell_angle_gamma   90.00000000
_symmetry_Int_Tables_number   1
_chemical_formula_structural   DyP5O14
_chemical_formula_sum   'Dy4 P20 O56'
_cell_volume   1028.74715733
_cell_formula_units_Z   4
loop_
 _symmetry_equiv_pos_site_id
 _symmetry_equiv_pos_as_xyz
  1  'x, y, z'
loop_
 _atom_site_type_symbol
 _atom_site_label
 _atom_site_symmetry_multiplicity
 _atom_site_fract_x
 _atom_site_fract_y
 _atom_site_fract_z
 _atom_site_occupancy
  Dy  Dy0  1  0.979442  0.939488  0.250000  1
  Dy  Dy1  1  0.520558  0.439488  0.750000  1
  Dy  Dy2  1  0.479442  0.560512  0.250000  1
  Dy  Dy3  1  0.020558  0.060512  0.750000  1
  P  P4  1  0.994753  0.701330  0.583385  1
  P  P5  1  0.994753  0.701330  0.916615  1
  P  P6  1  0.931854  0.488146  0.750000  1
  P  P7  1  0.745769  0.725239  0.066512  1
  P  P8  1  0.745769  0.725239  0.433488  1
  P  P9  1  0.754231  0.225239  0.566512  1
  P  P10  1  0.754231  0.225239  0.933488  1
  P  P11  1  0.568146  0.988146  0.250000  1
  P  P12  1  0.505247  0.201330  0.416615  1
  P  P13  1  0.505247  0.201330  0.083385  1
  P  P14  1  0.494753  0.798670  0.916615  1
  P  P15  1  0.494753  0.798670  0.583385  1
  P  P16  1  0.431854  0.011854  0.750000  1
  P  P17  1  0.245769  0.774761  0.066512  1
  P  P18  1  0.245769  0.774761  0.433488  1
  P  P19  1  0.254231  0.274761  0.566512  1
  P  P20  1  0.254231  0.274761  0.933488  1
  P  P21  1  0.068146  0.511854  0.250000  1
  P  P22  1  0.005247  0.298670  0.083385  1
  P  P23  1  0.005247  0.298670  0.416615  1
  O  O24  1  0.002865  0.154040  0.136554  1
  O  O25  1  0.002865  0.154040  0.363446  1
  O  O26  1  0.968060  0.328139  0.750000  1
  O  O27  1  0.972530  0.437867  0.153724  1
  O  O28  1  0.972530  0.437867  0.346276  1
  O  O29  1  0.882527  0.320297  0.504015  1
  O  O30  1  0.882527  0.320297  0.995985  1
  O  O31  1  0.845250  0.836693  0.117290  1
  O  O32  1  0.845250  0.836693  0.382710  1
  O  O33  1  0.839316  0.654551  0.530603  1
  O  O34  1  0.839316  0.654551  0.969397  1
  O  O35  1  0.826849  0.102451  0.624998  1
  O  O36  1  0.826849  0.102451  0.875002  1
  O  O37  1  0.774036  0.547625  0.750000  1
  O  O38  1  0.725964  0.047625  0.250000  1
  O  O39  1  0.673151  0.602451  0.124998  1
  O  O40  1  0.673151  0.602451  0.375002  1
  O  O41  1  0.660684  0.154551  0.030603  1
  O  O42  1  0.660684  0.154551  0.469397  1
  O  O43  1  0.654750  0.336693  0.617290  1
  O  O44  1  0.654750  0.336693  0.882710  1
  O  O45  1  0.617473  0.820297  0.004015  1
  O  O46  1  0.617473  0.820297  0.495985  1
  O  O47  1  0.527470  0.937867  0.653724  1
  O  O48  1  0.527470  0.937867  0.846276  1
  O  O49  1  0.531940  0.828139  0.250000  1
  O  O50  1  0.497135  0.654040  0.636554  1
  O  O51  1  0.497135  0.654040  0.863446  1
  O  O52  1  0.502865  0.345960  0.136554  1
  O  O53  1  0.502865  0.345960  0.363446  1
  O  O54  1  0.468060  0.171861  0.750000  1
  O  O55  1  0.472530  0.062133  0.153724  1
  O  O56  1  0.472530  0.062133  0.346276  1
  O  O57  1  0.382527  0.179703  0.504015  1
  O  O58  1  0.382527  0.179703  0.995985  1
  O  O59  1  0.345250  0.663307  0.117290  1
  O  O60  1  0.345250  0.663307  0.382710  1
  O  O61  1  0.339316  0.845449  0.530603  1
  O  O62  1  0.339316  0.845449  0.969397  1
  O  O63  1  0.326849  0.397549  0.624998  1
  O  O64  1  0.326849  0.397549  0.875002  1
  O  O65  1  0.274036  0.952375  0.750000  1
  O  O66  1  0.225964  0.452375  0.250000  1
  O  O67  1  0.173151  0.897549  0.124998  1
  O  O68  1  0.173151  0.897549  0.375002  1
  O  O69  1  0.160684  0.345449  0.030603  1
  O  O70  1  0.160684  0.345449  0.469397  1
  O  O71  1  0.154750  0.163307  0.882710  1
  O  O72  1  0.154750  0.163307  0.617290  1
  O  O73  1  0.117473  0.679703  0.004015  1
  O  O74  1  0.117473  0.679703  0.495985  1
  O  O75  1  0.027470  0.562133  0.653724  1
  O  O76  1  0.027470  0.562133  0.846276  1
  O  O77  1  0.031940  0.671861  0.250000  1
  O  O78  1  0.997135  0.845960  0.636554  1
  O  O79  1  0.997135  0.845960  0.863446  1
