# generated using pymatgen
data_V4P2O13
_symmetry_space_group_name_H-M   'P 1'
_cell_length_a   4.96968768
_cell_length_b   5.00282218
_cell_length_c   8.78753055
_cell_angle_alpha   88.62449829
_cell_angle_beta   100.01261542
_cell_angle_gamma   99.39381967
_symmetry_Int_Tables_number   1
_chemical_formula_structural   V4P2O13
_chemical_formula_sum   'V4 P2 O13'
_cell_volume   212.26471554
_cell_formula_units_Z   1
loop_
 _symmetry_equiv_pos_site_id
 _symmetry_equiv_pos_as_xyz
  1  'x, y, z'
loop_
 _atom_site_type_symbol
 _atom_site_label
 _atom_site_symmetry_multiplicity
 _atom_site_fract_x
 _atom_site_fract_y
 _atom_site_fract_z
 _atom_site_occupancy
  V  V0  1  0.749459  0.044036  0.314090  1
  V  V1  1  0.925584  0.823184  0.642586  1
  V  V2  1  0.430960  0.538448  0.060150  1
  V  V3  1  0.585197  0.253739  0.703516  1
  P  P4  1  0.986976  0.989659  0.998139  1
  P  P5  1  0.246280  0.567775  0.413279  1
  O  O6  1  0.010909  0.734080  0.435467  1
  O  O7  1  0.796864  0.852476  0.113953  1
  O  O8  1  0.929064  0.505212  0.723230  1
  O  O9  1  0.714690  0.075307  0.532594  1
  O  O10  1  0.594635  0.282439  0.212230  1
  O  O11  1  0.804279  0.981158  0.830126  1
  O  O12  1  0.412476  0.719797  0.291271  1
  O  O13  1  0.452096  0.557991  0.568056  1
  O  O14  1  0.529565  0.435337  0.900563  1
  O  O15  1  0.266928  0.043191  0.688348  1
  O  O16  1  0.081385  0.287894  0.043653  1
  O  O17  1  0.118365  0.280747  0.358879  1
  O  O18  1  0.223810  0.835310  0.990681  1
