# generated using pymatgen
data_Li2MnCr2O6
_symmetry_space_group_name_H-M   'P 1'
_cell_length_a   5.07241781
_cell_length_b   5.07241781
_cell_length_c   10.14641048
_cell_angle_alpha   90.00000000
_cell_angle_beta   90.00000000
_cell_angle_gamma   119.62508773
_symmetry_Int_Tables_number   1
_chemical_formula_structural   Li2MnCr2O6
_chemical_formula_sum   'Li4 Mn2 Cr4 O12'
_cell_volume   226.93497711
_cell_formula_units_Z   2
loop_
 _symmetry_equiv_pos_site_id
 _symmetry_equiv_pos_as_xyz
  1  'x, y, z'
loop_
 _atom_site_type_symbol
 _atom_site_label
 _atom_site_symmetry_multiplicity
 _atom_site_fract_x
 _atom_site_fract_y
 _atom_site_fract_z
 _atom_site_occupancy
  Li  Li0  1  0.653891  0.153891  0.750000  1
  Li  Li1  1  0.846109  0.346109  0.250000  1
  Li  Li2  1  0.153891  0.653891  0.750000  1
  Li  Li3  1  0.346109  0.846109  0.250000  1
  Mn  Mn4  1  0.000000  0.000000  0.000000  1
  Mn  Mn5  1  0.500000  0.500000  0.500000  1
  Cr  Cr6  1  0.836337  0.163663  0.500000  1
  Cr  Cr7  1  0.663663  0.336337  0.000000  1
  Cr  Cr8  1  0.336337  0.663663  0.000000  1
  Cr  Cr9  1  0.163663  0.836337  0.500000  1
  O  O10  1  0.674821  0.005328  0.105577  1
  O  O11  1  0.325179  0.994672  0.894423  1
  O  O12  1  0.505328  0.174821  0.394423  1
  O  O13  1  0.825179  0.494672  0.605577  1
  O  O14  1  0.181900  0.181900  0.599908  1
  O  O15  1  0.318100  0.318100  0.099908  1
  O  O16  1  0.681900  0.681900  0.900092  1
  O  O17  1  0.994672  0.325179  0.894423  1
  O  O18  1  0.818100  0.818100  0.400092  1
  O  O19  1  0.174821  0.505328  0.394423  1
  O  O20  1  0.494672  0.825179  0.605577  1
  O  O21  1  0.005328  0.674821  0.105577  1
