# generated using pymatgen
data_FeSeO4
_symmetry_space_group_name_H-M   'P 1'
_cell_length_a   5.10669878
_cell_length_b   5.10669878
_cell_length_c   6.55466923
_cell_angle_alpha   90.00000000
_cell_angle_beta   90.00000000
_cell_angle_gamma   112.75559125
_symmetry_Int_Tables_number   1
_chemical_formula_structural   FeSeO4
_chemical_formula_sum   'Fe2 Se2 O8'
_cell_volume   157.63006909
_cell_formula_units_Z   2
loop_
 _symmetry_equiv_pos_site_id
 _symmetry_equiv_pos_as_xyz
  1  'x, y, z'
loop_
 _atom_site_type_symbol
 _atom_site_label
 _atom_site_symmetry_multiplicity
 _atom_site_fract_x
 _atom_site_fract_y
 _atom_site_fract_z
 _atom_site_occupancy
  Fe  Fe0  1  0.000000  0.000000  0.000000  1
  Fe  Fe1  1  0.000000  0.000000  0.500000  1
  Se  Se2  1  0.651399  0.348601  0.250000  1
  Se  Se3  1  0.348601  0.651399  0.750000  1
  O  O4  1  0.289436  0.221789  0.250000  1
  O  O5  1  0.221789  0.289436  0.750000  1
  O  O6  1  0.756638  0.243362  0.037332  1
  O  O7  1  0.756638  0.243362  0.462668  1
  O  O8  1  0.243362  0.756638  0.537332  1
  O  O9  1  0.243362  0.756638  0.962668  1
  O  O10  1  0.778211  0.710564  0.250000  1
  O  O11  1  0.710564  0.778211  0.750000  1
