# generated using pymatgen
data_Li3Mn(CoO3)2
_symmetry_space_group_name_H-M   'P 1'
_cell_length_a   6.43560891
_cell_length_b   6.43560891
_cell_length_c   5.86733308
_cell_angle_alpha   75.58615065
_cell_angle_beta   104.41384935
_cell_angle_gamma   153.83889285
_symmetry_Int_Tables_number   1
_chemical_formula_structural   Li3Mn(CoO3)2
_chemical_formula_sum   'Li3 Mn1 Co2 O6'
_cell_volume   103.58361255
_cell_formula_units_Z   1
loop_
 _symmetry_equiv_pos_site_id
 _symmetry_equiv_pos_as_xyz
  1  'x, y, z'
loop_
 _atom_site_type_symbol
 _atom_site_label
 _atom_site_symmetry_multiplicity
 _atom_site_fract_x
 _atom_site_fract_y
 _atom_site_fract_z
 _atom_site_occupancy
  Li  Li0  1  0.331999  0.668001  0.673832  1
  Li  Li1  1  0.000000  0.000000  0.000000  1
  Li  Li2  1  0.668001  0.331999  0.326168  1
  Mn  Mn3  1  1.000000  0.000000  0.500000  1
  Co  Co4  1  0.333983  0.666017  0.162223  1
  Co  Co5  1  0.666017  0.333983  0.837777  1
  O  O6  1  0.839034  0.160966  0.394344  1
  O  O7  1  0.505183  0.494817  0.752765  1
  O  O8  1  0.175165  0.824835  0.062730  1
  O  O9  1  0.494817  0.505183  0.247235  1
  O  O10  1  0.160966  0.839034  0.605656  1
  O  O11  1  0.824835  0.175165  0.937270  1
