# generated using pymatgen
data_Li2CoCuO4
_symmetry_space_group_name_H-M   'P 1'
_cell_length_a   5.78658085
_cell_length_b   5.78658085
_cell_length_c   5.78658085
_cell_angle_alpha   120.73153354
_cell_angle_beta   119.66785139
_cell_angle_gamma   89.65695239
_symmetry_Int_Tables_number   1
_chemical_formula_structural   Li2CoCuO4
_chemical_formula_sum   'Li4 Co2 Cu2 O8'
_cell_volume   136.57860785
_cell_formula_units_Z   2
loop_
 _symmetry_equiv_pos_site_id
 _symmetry_equiv_pos_as_xyz
  1  'x, y, z'
loop_
 _atom_site_type_symbol
 _atom_site_label
 _atom_site_symmetry_multiplicity
 _atom_site_fract_x
 _atom_site_fract_y
 _atom_site_fract_z
 _atom_site_occupancy
  Li  Li0  1  0.500000  0.500000  0.000000  1
  Li  Li1  1  0.000000  0.500000  0.000000  1
  Li  Li2  1  0.500000  0.000000  0.500000  1
  Li  Li3  1  0.500000  0.500000  0.500000  1
  Co  Co4  1  0.000000  0.500000  0.500000  1
  Co  Co5  1  0.000000  0.000000  0.000000  1
  Cu  Cu6  1  0.500000  0.000000  0.000000  1
  Cu  Cu7  1  0.000000  0.000000  0.500000  1
  O  O8  1  0.777207  0.753925  0.523282  1
  O  O9  1  0.235629  0.226753  0.991124  1
  O  O10  1  0.230642  0.753925  0.976718  1
  O  O11  1  0.235629  0.744506  0.508876  1
  O  O12  1  0.764371  0.255494  0.491124  1
  O  O13  1  0.769358  0.246075  0.023283  1
  O  O14  1  0.764371  0.773247  0.008876  1
  O  O15  1  0.222793  0.246075  0.476717  1
