# generated using pymatgen
data_Li3NiPCO7
_symmetry_space_group_name_H-M   'P 1'
_cell_length_a   9.41178100
_cell_length_b   6.32910818
_cell_length_c   9.74443653
_cell_angle_alpha   90.00000000
_cell_angle_beta   116.03071385
_cell_angle_gamma   90.00000000
_symmetry_Int_Tables_number   1
_chemical_formula_structural   Li3NiPCO7
_chemical_formula_sum   'Li12 Ni4 P4 C4 O28'
_cell_volume   521.57603110
_cell_formula_units_Z   4
loop_
 _symmetry_equiv_pos_site_id
 _symmetry_equiv_pos_as_xyz
  1  'x, y, z'
loop_
 _atom_site_type_symbol
 _atom_site_label
 _atom_site_symmetry_multiplicity
 _atom_site_fract_x
 _atom_site_fract_y
 _atom_site_fract_z
 _atom_site_occupancy
  Li  Li0  1  0.099946  0.249964  0.683042  1
  Li  Li1  1  0.099946  0.250036  0.183042  1
  Li  Li2  1  0.278186  0.009258  0.508560  1
  Li  Li3  1  0.278186  0.490742  0.008560  1
  Li  Li4  1  0.347606  0.751506  0.313726  1
  Li  Li5  1  0.347606  0.748494  0.813726  1
  Li  Li6  1  0.652394  0.248494  0.686274  1
  Li  Li7  1  0.652394  0.251506  0.186274  1
  Li  Li8  1  0.721814  0.990742  0.491440  1
  Li  Li9  1  0.721814  0.509258  0.991440  1
  Li  Li10  1  0.900054  0.750036  0.316958  1
  Li  Li11  1  0.900054  0.749964  0.816958  1
  Ni  Ni12  1  0.274272  0.490581  0.512437  1
  Ni  Ni13  1  0.274272  0.009419  0.012437  1
  Ni  Ni14  1  0.725728  0.509419  0.487563  1
  Ni  Ni15  1  0.725728  0.990581  0.987563  1
  P  P16  1  0.409086  0.247838  0.315072  1
  P  P17  1  0.409086  0.252162  0.815072  1
  P  P18  1  0.590914  0.752162  0.684928  1
  P  P19  1  0.590914  0.747838  0.184928  1
  C  C20  1  0.038853  0.740220  0.621549  1
  C  C21  1  0.038853  0.759780  0.121549  1
  C  C22  1  0.961147  0.259780  0.378451  1
  C  C23  1  0.961147  0.240220  0.878451  1
  O  O24  1  0.069061  0.748600  0.261920  1
  O  O25  1  0.069061  0.751400  0.761920  1
  O  O26  1  0.109921  0.264987  0.485043  1
  O  O27  1  0.149290  0.739522  0.576498  1
  O  O28  1  0.109921  0.235013  0.985043  1
  O  O29  1  0.149290  0.760478  0.076498  1
  O  O30  1  0.315721  0.054360  0.324378  1
  O  O31  1  0.308525  0.441023  0.320370  1
  O  O32  1  0.308525  0.058977  0.820370  1
  O  O33  1  0.315721  0.445640  0.824378  1
  O  O34  1  0.420439  0.740980  0.555235  1
  O  O35  1  0.419214  0.255784  0.659009  1
  O  O36  1  0.420439  0.759020  0.055235  1
  O  O37  1  0.419214  0.244216  0.159009  1
  O  O38  1  0.580786  0.744216  0.340991  1
  O  O39  1  0.579561  0.259020  0.444765  1
  O  O40  1  0.580786  0.755784  0.840991  1
  O  O41  1  0.579561  0.240980  0.944765  1
  O  O42  1  0.684279  0.945640  0.675622  1
  O  O43  1  0.691475  0.558977  0.679630  1
  O  O44  1  0.691475  0.941023  0.179630  1
  O  O45  1  0.684279  0.554360  0.175622  1
  O  O46  1  0.850710  0.260478  0.423502  1
  O  O47  1  0.890079  0.735013  0.514957  1
  O  O48  1  0.850710  0.239522  0.923502  1
  O  O49  1  0.890079  0.764987  0.014957  1
  O  O50  1  0.930939  0.251400  0.738080  1
  O  O51  1  0.930939  0.248600  0.238080  1
