# generated using pymatgen
data_Li4Cu5F17
_symmetry_space_group_name_H-M   'P 1'
_cell_length_a   6.45307431
_cell_length_b   9.49745926
_cell_length_c   11.37776218
_cell_angle_alpha   103.38800895
_cell_angle_beta   94.93763203
_cell_angle_gamma   109.50856078
_symmetry_Int_Tables_number   1
_chemical_formula_structural   Li4Cu5F17
_chemical_formula_sum   'Li8 Cu10 F34'
_cell_volume   629.19088496
_cell_formula_units_Z   2
loop_
 _symmetry_equiv_pos_site_id
 _symmetry_equiv_pos_as_xyz
  1  'x, y, z'
loop_
 _atom_site_type_symbol
 _atom_site_label
 _atom_site_symmetry_multiplicity
 _atom_site_fract_x
 _atom_site_fract_y
 _atom_site_fract_z
 _atom_site_occupancy
  Li  Li0  1  0.743636  0.764970  0.031889  1
  Li  Li1  1  0.685815  0.931463  0.356848  1
  Li  Li2  1  0.208952  0.417458  0.324667  1
  Li  Li3  1  0.077360  0.279667  0.551649  1
  Li  Li4  1  0.922640  0.720333  0.448351  1
  Li  Li5  1  0.791048  0.582542  0.675333  1
  Li  Li6  1  0.314185  0.068537  0.643152  1
  Li  Li7  1  0.256364  0.235030  0.968111  1
  Cu  Cu8  1  0.773260  0.958262  0.656164  1
  Cu  Cu9  1  0.334883  0.685630  0.620664  1
  Cu  Cu10  1  0.247526  0.549433  0.840075  1
  Cu  Cu11  1  0.191175  0.714840  0.194266  1
  Cu  Cu12  1  0.279204  0.873922  0.985311  1
  Cu  Cu13  1  0.720796  0.126078  0.014689  1
  Cu  Cu14  1  0.808825  0.285160  0.805734  1
  Cu  Cu15  1  0.752474  0.450567  0.159925  1
  Cu  Cu16  1  0.665117  0.314370  0.379336  1
  Cu  Cu17  1  0.226740  0.041738  0.343836  1
  F  F18  1  0.930728  0.000827  0.280344  1
  F  F19  1  0.791708  0.869637  0.490164  1
  F  F20  1  0.659752  0.744793  0.678349  1
  F  F21  1  0.545725  0.594028  0.896392  1
  F  F22  1  0.598768  0.917172  0.034228  1
  F  F23  1  0.490828  0.754048  0.239261  1
  F  F24  1  0.355342  0.603628  0.457146  1
  F  F25  1  0.268090  0.484814  0.657150  1
  F  F26  1  0.020587  0.167396  0.055026  1
  F  F27  1  0.443492  0.902857  0.610255  1
  F  F28  1  0.216277  0.660825  0.008458  1
  F  F29  1  0.132147  0.338938  0.859341  1
  F  F30  1  0.309818  0.750145  0.801191  1
  F  F31  1  0.078163  0.504883  0.213703  1
  F  F32  1  0.258630  0.928815  0.178071  1
  F  F33  1  0.966969  0.334020  0.415586  1
  F  F34  1  0.158081  0.836810  0.370787  1
  F  F35  1  0.841919  0.163190  0.629213  1
  F  F36  1  0.033031  0.665980  0.584414  1
  F  F37  1  0.741370  0.071185  0.821929  1
  F  F38  1  0.921837  0.495117  0.786297  1
  F  F39  1  0.690182  0.249855  0.198809  1
  F  F40  1  0.867853  0.661062  0.140659  1
  F  F41  1  0.783723  0.339175  0.991542  1
  F  F42  1  0.556508  0.097143  0.389745  1
  F  F43  1  0.979413  0.832604  0.944974  1
  F  F44  1  0.731910  0.515186  0.342850  1
  F  F45  1  0.644658  0.396372  0.542854  1
  F  F46  1  0.509172  0.245952  0.760739  1
  F  F47  1  0.401232  0.082828  0.965772  1
  F  F48  1  0.454275  0.405972  0.103608  1
  F  F49  1  0.340248  0.255207  0.321651  1
  F  F50  1  0.208292  0.130363  0.509836  1
  F  F51  1  0.069272  0.999173  0.719656  1
