# generated using pymatgen
data_Li24MnCr11O36
_symmetry_space_group_name_H-M   'P 1'
_cell_length_a   8.75049638
_cell_length_b   8.75049638
_cell_length_c   10.24352513
_cell_angle_alpha   72.92851512
_cell_angle_beta   107.07148488
_cell_angle_gamma   120.30078896
_symmetry_Int_Tables_number   1
_chemical_formula_structural   Li24MnCr11O36
_chemical_formula_sum   'Li24 Mn1 Cr11 O36'
_cell_volume   637.23650343
_cell_formula_units_Z   1
loop_
 _symmetry_equiv_pos_site_id
 _symmetry_equiv_pos_as_xyz
  1  'x, y, z'
loop_
 _atom_site_type_symbol
 _atom_site_label
 _atom_site_symmetry_multiplicity
 _atom_site_fract_x
 _atom_site_fract_y
 _atom_site_fract_z
 _atom_site_occupancy
  Li  Li0  1  0.004914  0.339704  0.749541  1
  Li  Li1  1  0.167184  0.500083  0.500292  1
  Li  Li2  1  0.006291  0.339929  0.248941  1
  Li  Li3  1  0.327784  0.661552  0.250515  1
  Li  Li4  1  0.999738  0.665564  0.250264  1
  Li  Li5  1  0.166732  0.500068  0.000118  1
  Li  Li6  1  0.326470  0.659681  0.749930  1
  Li  Li7  1  0.001999  0.667373  0.750639  1
  Li  Li8  1  0.667373  0.001999  0.249361  1
  Li  Li9  1  0.665564  0.999738  0.749736  1
  Li  Li10  1  0.339929  0.006291  0.751059  1
  Li  Li11  1  0.500083  0.167184  0.499708  1
  Li  Li12  1  0.339704  0.004914  0.250459  1
  Li  Li13  1  0.659681  0.326470  0.250070  1
  Li  Li14  1  0.333602  0.333515  0.250792  1
  Li  Li15  1  0.500068  0.166732  0.999882  1
  Li  Li16  1  0.661552  0.327784  0.749485  1
  Li  Li17  1  0.333515  0.333602  0.749208  1
  Li  Li18  1  0.670885  0.670632  0.749570  1
  Li  Li19  1  0.833667  0.833667  0.500000  1
  Li  Li20  1  0.670632  0.670885  0.250430  1
  Li  Li21  1  0.995468  0.995044  0.250266  1
  Li  Li22  1  0.832918  0.832918  0.000000  1
  Li  Li23  1  0.995044  0.995468  0.749734  1
  Mn  Mn24  1  0.497088  0.497088  0.500000  1
  Cr  Cr25  1  0.504630  0.829541  0.500671  1
  Cr  Cr26  1  0.175343  0.835476  0.501186  1
  Cr  Cr27  1  0.491342  0.832233  0.999582  1
  Cr  Cr28  1  0.159769  0.834298  0.000397  1
  Cr  Cr29  1  0.835476  0.175343  0.498814  1
  Cr  Cr30  1  0.160286  0.160286  0.500000  1
  Cr  Cr31  1  0.834298  0.159769  0.999603  1
  Cr  Cr32  1  0.173809  0.173809  0.000000  1
  Cr  Cr33  1  0.829541  0.504630  0.499329  1
  Cr  Cr34  1  0.832233  0.491342  0.000418  1
  Cr  Cr35  1  0.508155  0.508155  0.000000  1
  O  O36  1  0.074491  0.598416  0.614693  1
  O  O37  1  0.569914  0.738158  0.388836  1
  O  O38  1  0.066730  0.589544  0.115214  1
  O  O39  1  0.266554  0.765890  0.388201  1
  O  O40  1  0.567338  0.735550  0.887183  1
  O  O41  1  0.258526  0.765021  0.888182  1
  O  O42  1  0.406277  0.900709  0.612405  1
  O  O43  1  0.736039  0.926141  0.614299  1
  O  O44  1  0.100476  0.933026  0.613075  1
  O  O45  1  0.402421  0.901304  0.111442  1
  O  O46  1  0.598416  0.074491  0.385307  1
  O  O47  1  0.232564  0.064700  0.387390  1
  O  O48  1  0.741728  0.930960  0.114774  1
  O  O49  1  0.098498  0.924440  0.111848  1
  O  O50  1  0.933026  0.100476  0.386925  1
  O  O51  1  0.589544  0.066730  0.884786  1
  O  O52  1  0.233512  0.077450  0.887470  1
  O  O53  1  0.924440  0.098498  0.888152  1
  O  O54  1  0.064700  0.232564  0.612610  1
  O  O55  1  0.765890  0.266554  0.611799  1
  O  O56  1  0.406281  0.260816  0.613358  1
  O  O57  1  0.077450  0.233512  0.112530  1
  O  O58  1  0.900709  0.406277  0.387595  1
  O  O59  1  0.260816  0.406281  0.386642  1
  O  O60  1  0.765021  0.258526  0.111818  1
  O  O61  1  0.408048  0.263494  0.114185  1
  O  O62  1  0.589001  0.428444  0.388023  1
  O  O63  1  0.901304  0.402421  0.888558  1
  O  O64  1  0.263494  0.408048  0.885815  1
  O  O65  1  0.600859  0.433920  0.887595  1
  O  O66  1  0.738158  0.569914  0.611164  1
  O  O67  1  0.428444  0.589001  0.611977  1
  O  O68  1  0.735550  0.567338  0.112817  1
  O  O69  1  0.926141  0.736039  0.385701  1
  O  O70  1  0.433920  0.600859  0.112405  1
  O  O71  1  0.930960  0.741728  0.885226  1
