# generated using pymatgen
data_MnNb(PO4)2
_symmetry_space_group_name_H-M   'P 1'
_cell_length_a   5.03046918
_cell_length_b   6.15612387
_cell_length_c   10.22907683
_cell_angle_alpha   90.00000000
_cell_angle_beta   91.87178242
_cell_angle_gamma   90.00000000
_symmetry_Int_Tables_number   1
_chemical_formula_structural   MnNb(PO4)2
_chemical_formula_sum   'Mn2 Nb2 P4 O16'
_cell_volume   316.60698484
_cell_formula_units_Z   2
loop_
 _symmetry_equiv_pos_site_id
 _symmetry_equiv_pos_as_xyz
  1  'x, y, z'
loop_
 _atom_site_type_symbol
 _atom_site_label
 _atom_site_symmetry_multiplicity
 _atom_site_fract_x
 _atom_site_fract_y
 _atom_site_fract_z
 _atom_site_occupancy
  Mn  Mn0  1  0.950624  0.250000  0.278040  1
  Mn  Mn1  1  0.049376  0.750000  0.721960  1
  Nb  Nb2  1  0.450189  0.750000  0.219042  1
  Nb  Nb3  1  0.549811  0.250000  0.780958  1
  P  P4  1  0.423057  0.250000  0.092136  1
  P  P5  1  0.894887  0.750000  0.400717  1
  P  P6  1  0.105113  0.250000  0.599283  1
  P  P7  1  0.576943  0.750000  0.907864  1
  O  O8  1  0.679398  0.750000  0.051590  1
  O  O9  1  0.722522  0.250000  0.105054  1
  O  O10  1  0.296687  0.049055  0.166397  1
  O  O11  1  0.296687  0.450945  0.166397  1
  O  O12  1  0.748159  0.942409  0.324694  1
  O  O13  1  0.748159  0.557591  0.324694  1
  O  O14  1  0.196496  0.750000  0.374014  1
  O  O15  1  0.154722  0.250000  0.455131  1
  O  O16  1  0.845278  0.750000  0.544869  1
  O  O17  1  0.803504  0.250000  0.625986  1
  O  O18  1  0.251841  0.057591  0.675306  1
  O  O19  1  0.251841  0.442409  0.675306  1
  O  O20  1  0.703313  0.549055  0.833603  1
  O  O21  1  0.703313  0.950945  0.833603  1
  O  O22  1  0.277478  0.750000  0.894946  1
  O  O23  1  0.320602  0.250000  0.948410  1
