# generated using pymatgen
data_Ca3Be2P4(HO2)10
_symmetry_space_group_name_H-M   'P 1'
_cell_length_a   7.14569431
_cell_length_b   15.16598697
_cell_length_c   7.40552710
_cell_angle_alpha   90.00000000
_cell_angle_beta   95.82613587
_cell_angle_gamma   90.00000000
_symmetry_Int_Tables_number   1
_chemical_formula_structural   Ca3Be2P4(HO2)10
_chemical_formula_sum   'Ca6 Be4 P8 H20 O40'
_cell_volume   798.40257341
_cell_formula_units_Z   2
loop_
 _symmetry_equiv_pos_site_id
 _symmetry_equiv_pos_as_xyz
  1  'x, y, z'
loop_
 _atom_site_type_symbol
 _atom_site_label
 _atom_site_symmetry_multiplicity
 _atom_site_fract_x
 _atom_site_fract_y
 _atom_site_fract_z
 _atom_site_occupancy
  Ca  Ca0  1  0.000000  0.000000  0.000000  1
  Ca  Ca1  1  0.045225  0.303030  0.858482  1
  Ca  Ca2  1  0.954775  0.803030  0.641518  1
  Ca  Ca3  1  0.000000  0.500000  0.500000  1
  Ca  Ca4  1  0.045225  0.196970  0.358482  1
  Ca  Ca5  1  0.954775  0.696970  0.141518  1
  Be  Be6  1  0.553779  0.291665  0.873115  1
  Be  Be7  1  0.446221  0.791665  0.626885  1
  Be  Be8  1  0.553779  0.208335  0.373115  1
  Be  Be9  1  0.446221  0.708335  0.126885  1
  P  P10  1  0.643482  0.848373  0.974944  1
  P  P11  1  0.232720  0.652059  0.793356  1
  P  P12  1  0.767280  0.152059  0.706644  1
  P  P13  1  0.356518  0.348373  0.525056  1
  P  P14  1  0.643482  0.651627  0.474944  1
  P  P15  1  0.232720  0.847941  0.293356  1
  P  P16  1  0.767280  0.347941  0.206644  1
  P  P17  1  0.356518  0.151627  0.025056  1
  H  H18  1  0.268421  0.477444  0.890583  1
  H  H19  1  0.651689  0.583533  0.945940  1
  H  H20  1  0.537858  0.064472  0.875373  1
  H  H21  1  0.272686  0.916927  0.781730  1
  H  H22  1  0.160474  0.981260  0.644353  1
  H  H23  1  0.839526  0.481260  0.855647  1
  H  H24  1  0.727314  0.416927  0.718270  1
  H  H25  1  0.462142  0.564472  0.624627  1
  H  H26  1  0.348311  0.083533  0.554060  1
  H  H27  1  0.731579  0.977444  0.609417  1
  H  H28  1  0.268421  0.022556  0.390583  1
  H  H29  1  0.651689  0.916467  0.445940  1
  H  H30  1  0.537858  0.435528  0.375373  1
  H  H31  1  0.272686  0.583073  0.281730  1
  H  H32  1  0.160474  0.518740  0.144353  1
  H  H33  1  0.839526  0.018740  0.355647  1
  H  H34  1  0.727314  0.083073  0.218270  1
  H  H35  1  0.462142  0.935528  0.124627  1
  H  H36  1  0.348311  0.416467  0.054060  1
  H  H37  1  0.731579  0.522556  0.109417  1
  O  O38  1  0.230894  0.438844  0.988396  1
  O  O39  1  0.386234  0.645368  0.956144  1
  O  O40  1  0.360854  0.239508  0.917361  1
  O  O41  1  0.400639  0.072627  0.894705  1
  O  O42  1  0.035835  0.674109  0.848493  1
  O  O43  1  0.845373  0.861297  0.927160  1
  O  O44  1  0.727222  0.227545  0.841564  1
  O  O45  1  0.494871  0.852908  0.809328  1
  O  O46  1  0.760561  0.061818  0.806708  1
  O  O47  1  0.142666  0.935748  0.739123  1
  O  O48  1  0.857334  0.435748  0.760877  1
  O  O49  1  0.239439  0.561818  0.693292  1
  O  O50  1  0.505129  0.352908  0.690672  1
  O  O51  1  0.272778  0.727545  0.658436  1
  O  O52  1  0.154627  0.361297  0.572840  1
  O  O53  1  0.964165  0.174109  0.651507  1
  O  O54  1  0.599361  0.572627  0.605295  1
  O  O55  1  0.639146  0.739508  0.582639  1
  O  O56  1  0.613766  0.145368  0.543856  1
  O  O57  1  0.230894  0.061156  0.488396  1
  O  O58  1  0.769106  0.938844  0.511604  1
  O  O59  1  0.386234  0.854632  0.456144  1
  O  O60  1  0.360854  0.260492  0.417361  1
  O  O61  1  0.400639  0.427373  0.394705  1
  O  O62  1  0.035835  0.825891  0.348493  1
  O  O63  1  0.845373  0.638703  0.427160  1
  O  O64  1  0.727222  0.272455  0.341564  1
  O  O65  1  0.494871  0.647092  0.309328  1
  O  O66  1  0.760561  0.438182  0.306708  1
  O  O67  1  0.142666  0.564252  0.239123  1
  O  O68  1  0.857334  0.064252  0.260877  1
  O  O69  1  0.239439  0.938182  0.193292  1
  O  O70  1  0.505129  0.147092  0.190672  1
  O  O71  1  0.272778  0.772455  0.158436  1
  O  O72  1  0.154627  0.138703  0.072840  1
  O  O73  1  0.964165  0.325891  0.151507  1
  O  O74  1  0.599361  0.927373  0.105295  1
  O  O75  1  0.639146  0.760492  0.082639  1
  O  O76  1  0.613766  0.354632  0.043856  1
  O  O77  1  0.769106  0.561156  0.011604  1
