# generated using pymatgen
data_LiSi3BiO8
_symmetry_space_group_name_H-M   'P 1'
_cell_length_a   7.17504125
_cell_length_b   7.48554328
_cell_length_c   7.76817355
_cell_angle_alpha   112.93687685
_cell_angle_beta   106.82769641
_cell_angle_gamma   99.59796570
_symmetry_Int_Tables_number   1
_chemical_formula_structural   LiSi3BiO8
_chemical_formula_sum   'Li2 Si6 Bi2 O16'
_cell_volume   348.79603286
_cell_formula_units_Z   2
loop_
 _symmetry_equiv_pos_site_id
 _symmetry_equiv_pos_as_xyz
  1  'x, y, z'
loop_
 _atom_site_type_symbol
 _atom_site_label
 _atom_site_symmetry_multiplicity
 _atom_site_fract_x
 _atom_site_fract_y
 _atom_site_fract_z
 _atom_site_occupancy
  Li  Li0  1  0.813054  0.193580  0.841617  1
  Li  Li1  1  0.333261  0.582652  0.826467  1
  Si  Si2  1  0.659068  0.410353  0.171806  1
  Si  Si3  1  0.629670  0.207153  0.442379  1
  Si  Si4  1  0.767116  0.827703  0.186573  1
  Si  Si5  1  0.215713  0.836028  0.188921  1
  Si  Si6  1  0.217361  0.151499  0.785280  1
  Si  Si7  1  0.376975  0.790608  0.555308  1
  Bi  Bi8  1  0.116892  0.278211  0.357068  1
  Bi  Bi9  1  0.831600  0.729441  0.749499  1
  O  O10  1  0.843141  0.324890  0.133004  1
  O  O11  1  0.743253  0.047073  0.328362  1
  O  O12  1  0.438926  0.305798  0.980199  1
  O  O13  1  0.379809  0.074692  0.325048  1
  O  O14  1  0.013029  0.895214  0.227686  1
  O  O15  1  0.635530  0.389486  0.369802  1
  O  O16  1  0.720618  0.662599  0.267430  1
  O  O17  1  0.727507  0.331524  0.681572  1
  O  O18  1  0.292480  0.706814  0.305401  1
  O  O19  1  0.169573  0.281251  0.656929  1
  O  O20  1  0.305723  0.584098  0.575914  1
  O  O21  1  0.042627  0.080839  0.862630  1
  O  O22  1  0.623017  0.897021  0.659314  1
  O  O23  1  0.647369  0.738821  0.945278  1
  O  O24  1  0.252862  0.941430  0.644437  1
  O  O25  1  0.167628  0.730620  0.952872  1
