# generated using pymatgen
data_Li4V3P8O29
_symmetry_space_group_name_H-M   'P 1'
_cell_length_a   9.79131955
_cell_length_b   9.79131955
_cell_length_c   13.95652731
_cell_angle_alpha   89.95980825
_cell_angle_beta   90.04019175
_cell_angle_gamma   119.92680085
_symmetry_Int_Tables_number   1
_chemical_formula_structural   Li4V3P8O29
_chemical_formula_sum   'Li8 V6 P16 O58'
_cell_volume   1159.60524933
_cell_formula_units_Z   2
loop_
 _symmetry_equiv_pos_site_id
 _symmetry_equiv_pos_as_xyz
  1  'x, y, z'
loop_
 _atom_site_type_symbol
 _atom_site_label
 _atom_site_symmetry_multiplicity
 _atom_site_fract_x
 _atom_site_fract_y
 _atom_site_fract_z
 _atom_site_occupancy
  Li  Li0  1  0.091096  0.318673  0.191122  1
  Li  Li1  1  0.227651  0.909729  0.189598  1
  Li  Li2  1  0.678195  0.774671  0.192044  1
  Li  Li3  1  0.318673  0.091096  0.808878  1
  Li  Li4  1  0.677540  0.905784  0.689879  1
  Li  Li5  1  0.909729  0.227651  0.810402  1
  Li  Li6  1  0.774671  0.678195  0.807956  1
  Li  Li7  1  0.905784  0.677540  0.310121  1
  V  V8  1  0.432010  0.999380  0.002123  1
  V  V9  1  0.567617  0.004860  0.493700  1
  V  V10  1  0.428614  0.428614  0.500000  1
  V  V11  1  0.563927  0.563927  0.000000  1
  V  V12  1  0.999380  0.432010  0.997877  1
  V  V13  1  0.004860  0.567617  0.506300  1
  P  P14  1  0.086798  0.317086  0.407822  1
  P  P15  1  0.230271  0.314117  0.906230  1
  P  P16  1  0.086004  0.769750  0.908469  1
  P  P17  1  0.332302  0.664646  0.123330  1
  P  P18  1  0.339398  0.668525  0.621860  1
  P  P19  1  0.226943  0.911078  0.407944  1
  P  P20  1  0.317086  0.086798  0.592178  1
  P  P21  1  0.680431  0.768437  0.408807  1
  P  P22  1  0.314117  0.230271  0.093770  1
  P  P23  1  0.679574  0.911529  0.907462  1
  P  P24  1  0.769750  0.086004  0.091531  1
  P  P25  1  0.664646  0.332302  0.876670  1
  P  P26  1  0.668525  0.339398  0.378140  1
  P  P27  1  0.911078  0.226943  0.592056  1
  P  P28  1  0.768437  0.680431  0.591193  1
  P  P29  1  0.911529  0.679574  0.092538  1
  O  O30  1  0.991716  0.237373  0.683757  1
  O  O31  1  0.084618  0.335925  0.907664  1
  O  O32  1  0.236402  0.244725  0.181038  1
  O  O33  1  0.256026  0.342742  0.416388  1
  O  O34  1  0.093674  0.476925  0.429576  1
  O  O35  1  0.187750  0.512371  0.083397  1
  O  O36  1  0.095301  0.617755  0.926550  1
  O  O37  1  0.996440  0.757927  0.183971  1
  O  O38  1  0.081291  0.741948  0.412909  1
  O  O39  1  0.336801  0.520589  0.575448  1
  O  O40  1  0.382155  0.476947  0.927497  1
  O  O41  1  0.186595  0.665822  0.577382  1
  O  O42  1  0.342871  0.667723  0.230200  1
  O  O43  1  0.337630  0.667202  0.727930  1
  O  O44  1  0.326071  0.812435  0.084089  1
  O  O45  1  0.522344  0.616666  0.426028  1
  O  O46  1  0.487767  0.670513  0.079185  1
  O  O47  1  0.254391  0.915481  0.910890  1
  O  O48  1  0.206631  0.997650  0.500335  1
  O  O49  1  0.246419  0.006270  0.683454  1
  O  O50  1  0.237373  0.991716  0.316243  1
  O  O51  1  0.380242  0.902066  0.427338  1
  O  O52  1  0.487999  0.819028  0.580528  1
  O  O53  1  0.335925  0.084618  0.092336  1
  O  O54  1  0.520041  0.898415  0.925707  1
  O  O55  1  0.663760  0.744759  0.910684  1
  O  O56  1  0.208371  0.208371  0.000000  1
  O  O57  1  0.244725  0.236402  0.818962  1
  O  O58  1  0.759527  0.758920  0.681082  1
  O  O59  1  0.342742  0.256026  0.583612  1
  O  O60  1  0.476925  0.093674  0.570424  1
  O  O61  1  0.656977  0.913273  0.413966  1
  O  O62  1  0.512371  0.187750  0.916603  1
  O  O63  1  0.617755  0.095301  0.073450  1
  O  O64  1  0.761349  0.993268  0.177724  1
  O  O65  1  0.757927  0.996440  0.816029  1
  O  O66  1  0.793618  0.005242  0.995779  1
  O  O67  1  0.741948  0.081291  0.587091  1
  O  O68  1  0.520589  0.336801  0.424552  1
  O  O69  1  0.476947  0.382155  0.072503  1
  O  O70  1  0.665822  0.186595  0.422618  1
  O  O71  1  0.667202  0.337630  0.272070  1
  O  O72  1  0.667723  0.342871  0.769800  1
  O  O73  1  0.812435  0.326071  0.915911  1
  O  O74  1  0.616666  0.522344  0.573972  1
  O  O75  1  0.670513  0.487767  0.920815  1
  O  O76  1  0.915481  0.254391  0.089110  1
  O  O77  1  0.997650  0.206631  0.499665  1
  O  O78  1  0.006270  0.246419  0.316546  1
  O  O79  1  0.902066  0.380242  0.572662  1
  O  O80  1  0.819028  0.487999  0.419472  1
  O  O81  1  0.898415  0.520041  0.074293  1
  O  O82  1  0.744759  0.663760  0.089316  1
  O  O83  1  0.758920  0.759527  0.318918  1
  O  O84  1  0.792346  0.792346  0.500000  1
  O  O85  1  0.913273  0.656977  0.586034  1
  O  O86  1  0.993268  0.761349  0.822276  1
  O  O87  1  0.005242  0.793618  0.004221  1
