# generated using pymatgen
data_V2Ge2O7
_symmetry_space_group_name_H-M   'P 1'
_cell_length_a   5.58094989
_cell_length_b   5.58094989
_cell_length_c   10.05391867
_cell_angle_alpha   76.88137260
_cell_angle_beta   103.11862740
_cell_angle_gamma   82.61239016
_symmetry_Int_Tables_number   1
_chemical_formula_structural   V2Ge2O7
_chemical_formula_sum   'V4 Ge4 O14'
_cell_volume   291.61432224
_cell_formula_units_Z   2
loop_
 _symmetry_equiv_pos_site_id
 _symmetry_equiv_pos_as_xyz
  1  'x, y, z'
loop_
 _atom_site_type_symbol
 _atom_site_label
 _atom_site_symmetry_multiplicity
 _atom_site_fract_x
 _atom_site_fract_y
 _atom_site_fract_z
 _atom_site_occupancy
  V  V0  1  0.726276  0.624139  0.479731  1
  V  V1  1  0.624139  0.726276  0.020269  1
  V  V2  1  0.375861  0.273724  0.979731  1
  V  V3  1  0.273724  0.375861  0.520269  1
  Ge  Ge4  1  0.805614  0.195954  0.294782  1
  Ge  Ge5  1  0.804046  0.194386  0.794782  1
  Ge  Ge6  1  0.195954  0.805614  0.205218  1
  Ge  Ge7  1  0.194386  0.804046  0.705218  1
  O  O8  1  0.677257  0.973159  0.391293  1
  O  O9  1  0.407980  0.908709  0.103837  1
  O  O10  1  0.378763  0.581179  0.365128  1
  O  O11  1  0.078273  0.078273  0.250000  1
  O  O12  1  0.026841  0.322743  0.891293  1
  O  O13  1  0.091291  0.592020  0.603837  1
  O  O14  1  0.418821  0.621237  0.865128  1
  O  O15  1  0.581179  0.378763  0.134872  1
  O  O16  1  0.908709  0.407980  0.396163  1
  O  O17  1  0.973159  0.677257  0.108707  1
  O  O18  1  0.921727  0.921727  0.750000  1
  O  O19  1  0.621237  0.418821  0.634872  1
  O  O20  1  0.592020  0.091291  0.896163  1
  O  O21  1  0.322743  0.026841  0.608707  1
