# generated using pymatgen
data_Li3Mn(NiO3)2
_symmetry_space_group_name_H-M   'P 1'
_cell_length_a   6.62368152
_cell_length_b   6.62368152
_cell_length_c   5.88518746
_cell_angle_alpha   77.22516693
_cell_angle_beta   102.77483307
_cell_angle_gamma   154.80063328
_symmetry_Int_Tables_number   1
_chemical_formula_structural   Li3Mn(NiO3)2
_chemical_formula_sum   'Li3 Mn1 Ni2 O6'
_cell_volume   107.07535268
_cell_formula_units_Z   1
loop_
 _symmetry_equiv_pos_site_id
 _symmetry_equiv_pos_as_xyz
  1  'x, y, z'
loop_
 _atom_site_type_symbol
 _atom_site_label
 _atom_site_symmetry_multiplicity
 _atom_site_fract_x
 _atom_site_fract_y
 _atom_site_fract_z
 _atom_site_occupancy
  Li  Li0  1  0.500000  0.500000  0.500000  1
  Li  Li1  1  0.169038  0.830962  0.827888  1
  Li  Li2  1  0.830962  0.169038  0.172112  1
  Mn  Mn3  1  0.500000  0.500000  0.000000  1
  Ni  Ni4  1  0.167888  0.832112  0.337358  1
  Ni  Ni5  1  0.832112  0.167888  0.662642  1
  O  O6  1  0.654165  0.345835  0.088862  1
  O  O7  1  0.333195  0.666805  0.429911  1
  O  O8  1  0.345835  0.654165  0.911138  1
  O  O9  1  0.001964  0.998036  0.779750  1
  O  O10  1  0.998036  0.001964  0.220250  1
  O  O11  1  0.666805  0.333195  0.570089  1
