# generated using pymatgen
data_LiCuF4
_symmetry_space_group_name_H-M   'P 1'
_cell_length_a   7.69371816
_cell_length_b   7.69371816
_cell_length_c   5.12850738
_cell_angle_alpha   90.00000000
_cell_angle_beta   90.00000000
_cell_angle_gamma   151.67368570
_symmetry_Int_Tables_number   1
_chemical_formula_structural   LiCuF4
_chemical_formula_sum   'Li2 Cu2 F8'
_cell_volume   144.04325192
_cell_formula_units_Z   2
loop_
 _symmetry_equiv_pos_site_id
 _symmetry_equiv_pos_as_xyz
  1  'x, y, z'
loop_
 _atom_site_type_symbol
 _atom_site_label
 _atom_site_symmetry_multiplicity
 _atom_site_fract_x
 _atom_site_fract_y
 _atom_site_fract_z
 _atom_site_occupancy
  Li  Li0  1  0.810957  0.189043  0.539434  1
  Li  Li1  1  0.189043  0.810957  0.039434  1
  Cu  Cu2  1  0.590684  0.409316  0.529746  1
  Cu  Cu3  1  0.409316  0.590684  0.029746  1
  F  F4  1  0.657985  0.342015  0.218947  1
  F  F5  1  0.522587  0.477413  0.843527  1
  F  F6  1  0.907196  0.092804  0.031351  1
  F  F7  1  0.698421  0.301579  0.729678  1
  F  F8  1  0.477413  0.522587  0.343527  1
  F  F9  1  0.092804  0.907196  0.531351  1
  F  F10  1  0.301579  0.698421  0.229678  1
  F  F11  1  0.342015  0.657985  0.718947  1
