# generated using pymatgen
data_Fe4OF7
_symmetry_space_group_name_H-M   'P 1'
_cell_length_a   5.81255618
_cell_length_b   4.80639923
_cell_length_c   10.91329616
_cell_angle_alpha   90.00000000
_cell_angle_beta   98.00767778
_cell_angle_gamma   90.00000000
_symmetry_Int_Tables_number   1
_chemical_formula_structural   Fe4OF7
_chemical_formula_sum   'Fe8 O2 F14'
_cell_volume   301.91698007
_cell_formula_units_Z   2
loop_
 _symmetry_equiv_pos_site_id
 _symmetry_equiv_pos_as_xyz
  1  'x, y, z'
loop_
 _atom_site_type_symbol
 _atom_site_label
 _atom_site_symmetry_multiplicity
 _atom_site_fract_x
 _atom_site_fract_y
 _atom_site_fract_z
 _atom_site_occupancy
  Fe  Fe0  1  0.132932  0.514342  0.625366  1
  Fe  Fe1  1  0.626705  0.487548  0.131984  1
  Fe  Fe2  1  0.396290  0.481035  0.369369  1
  Fe  Fe3  1  0.877944  0.503111  0.876064  1
  Fe  Fe4  1  0.373295  0.987548  0.868016  1
  Fe  Fe5  1  0.603710  0.981035  0.630631  1
  Fe  Fe6  1  0.867068  0.014342  0.374634  1
  Fe  Fe7  1  0.122056  0.003111  0.123936  1
  O  O8  1  0.362198  0.809376  0.691342  1
  O  O9  1  0.637802  0.309376  0.308658  1
  F  F10  1  0.594593  0.794415  0.460883  1
  F  F11  1  0.848181  0.804536  0.199698  1
  F  F12  1  0.099948  0.800357  0.950886  1
  F  F13  1  0.604883  0.700414  0.953852  1
  F  F14  1  0.847705  0.709211  0.698706  1
  F  F15  1  0.340690  0.702494  0.209883  1
  F  F16  1  0.113579  0.693163  0.437752  1
  F  F17  1  0.900052  0.300357  0.049114  1
  F  F18  1  0.405407  0.294415  0.539117  1
  F  F19  1  0.151819  0.304536  0.800302  1
  F  F20  1  0.152295  0.209211  0.301294  1
  F  F21  1  0.395117  0.200414  0.046148  1
  F  F22  1  0.659310  0.202494  0.790117  1
  F  F23  1  0.886421  0.193163  0.562248  1
