# generated using pymatgen
data_LiMn3P3O11
_symmetry_space_group_name_H-M   'P 1'
_cell_length_a   8.07326140
_cell_length_b   9.15070389
_cell_length_c   11.62312268
_cell_angle_alpha   90.00000000
_cell_angle_beta   96.16256215
_cell_angle_gamma   90.00000000
_symmetry_Int_Tables_number   1
_chemical_formula_structural   LiMn3P3O11
_chemical_formula_sum   'Li4 Mn12 P12 O44'
_cell_volume   853.70811609
_cell_formula_units_Z   4
loop_
 _symmetry_equiv_pos_site_id
 _symmetry_equiv_pos_as_xyz
  1  'x, y, z'
loop_
 _atom_site_type_symbol
 _atom_site_label
 _atom_site_symmetry_multiplicity
 _atom_site_fract_x
 _atom_site_fract_y
 _atom_site_fract_z
 _atom_site_occupancy
  Li  Li0  1  0.885980  0.744784  0.494791  1
  Li  Li1  1  0.885980  0.755216  0.994791  1
  Li  Li2  1  0.114020  0.244784  0.005209  1
  Li  Li3  1  0.114020  0.255216  0.505209  1
  Mn  Mn4  1  0.929645  0.373443  0.240294  1
  Mn  Mn5  1  0.929645  0.126557  0.740294  1
  Mn  Mn6  1  0.543228  0.350387  0.068007  1
  Mn  Mn7  1  0.563289  0.397419  0.352978  1
  Mn  Mn8  1  0.543228  0.149613  0.568007  1
  Mn  Mn9  1  0.436711  0.897419  0.147022  1
  Mn  Mn10  1  0.563289  0.102581  0.852978  1
  Mn  Mn11  1  0.456772  0.850387  0.431993  1
  Mn  Mn12  1  0.436711  0.602581  0.647022  1
  Mn  Mn13  1  0.456772  0.649613  0.931993  1
  Mn  Mn14  1  0.070355  0.873443  0.259706  1
  Mn  Mn15  1  0.070355  0.626557  0.759706  1
  P  P16  1  0.788970  0.068480  0.104039  1
  P  P17  1  0.774848  0.068965  0.354316  1
  P  P18  1  0.788970  0.431520  0.604039  1
  P  P19  1  0.685209  0.674199  0.213760  1
  P  P20  1  0.774848  0.431035  0.854316  1
  P  P21  1  0.685209  0.825801  0.713760  1
  P  P22  1  0.314791  0.174199  0.286240  1
  P  P23  1  0.225152  0.568965  0.145684  1
  P  P24  1  0.314791  0.325801  0.786240  1
  P  P25  1  0.211030  0.568480  0.395961  1
  P  P26  1  0.225152  0.931035  0.645684  1
  P  P27  1  0.211030  0.931520  0.895961  1
  O  O28  1  0.960685  0.000006  0.116110  1
  O  O29  1  0.940794  0.991621  0.379134  1
  O  O30  1  0.960685  0.499994  0.616110  1
  O  O31  1  0.866017  0.722702  0.229579  1
  O  O32  1  0.788644  0.237690  0.103339  1
  O  O33  1  0.940794  0.508379  0.879134  1
  O  O34  1  0.866017  0.777298  0.729579  1
  O  O35  1  0.783242  0.237344  0.352595  1
  O  O36  1  0.788644  0.262310  0.603339  1
  O  O37  1  0.678287  0.500180  0.216220  1
  O  O38  1  0.696137  0.021553  0.220511  1
  O  O39  1  0.783242  0.262656  0.852595  1
  O  O40  1  0.673366  0.493650  0.503820  1
  O  O41  1  0.599798  0.729947  0.093675  1
  O  O42  1  0.649597  0.014760  0.435218  1
  O  O43  1  0.678287  0.999820  0.716220  1
  O  O44  1  0.696137  0.478447  0.720511  1
  O  O45  1  0.580428  0.734632  0.307486  1
  O  O46  1  0.673366  0.006350  0.003820  1
  O  O47  1  0.599798  0.770053  0.593675  1
  O  O48  1  0.649597  0.485240  0.935218  1
  O  O49  1  0.580428  0.765368  0.807486  1
  O  O50  1  0.419572  0.234632  0.192514  1
  O  O51  1  0.350403  0.514760  0.064782  1
  O  O52  1  0.400202  0.229947  0.406325  1
  O  O53  1  0.326634  0.993650  0.996180  1
  O  O54  1  0.419572  0.265368  0.692514  1
  O  O55  1  0.303863  0.521553  0.279489  1
  O  O56  1  0.321713  0.000180  0.283780  1
  O  O57  1  0.350403  0.985240  0.564782  1
  O  O58  1  0.400202  0.270053  0.906325  1
  O  O59  1  0.326634  0.506350  0.496180  1
  O  O60  1  0.216758  0.737344  0.147405  1
  O  O61  1  0.303863  0.978447  0.779489  1
  O  O62  1  0.321713  0.499820  0.783780  1
  O  O63  1  0.211356  0.737690  0.396661  1
  O  O64  1  0.216758  0.762656  0.647405  1
  O  O65  1  0.133983  0.222702  0.270421  1
  O  O66  1  0.059206  0.491621  0.120866  1
  O  O67  1  0.211356  0.762310  0.896661  1
  O  O68  1  0.133983  0.277298  0.770421  1
  O  O69  1  0.039315  0.500006  0.383890  1
  O  O70  1  0.059206  0.008379  0.620866  1
  O  O71  1  0.039315  0.999994  0.883890  1
