# generated using pymatgen
data_NaB(HO)4
_symmetry_space_group_name_H-M   'P 1'
_cell_length_a   5.96623113
_cell_length_b   10.74404320
_cell_length_c   6.24494229
_cell_angle_alpha   90.00000000
_cell_angle_beta   112.05976920
_cell_angle_gamma   90.00000000
_symmetry_Int_Tables_number   1
_chemical_formula_structural   NaB(HO)4
_chemical_formula_sum   'Na4 B4 H16 O16'
_cell_volume   371.00417191
_cell_formula_units_Z   4
loop_
 _symmetry_equiv_pos_site_id
 _symmetry_equiv_pos_as_xyz
  1  'x, y, z'
loop_
 _atom_site_type_symbol
 _atom_site_label
 _atom_site_symmetry_multiplicity
 _atom_site_fract_x
 _atom_site_fract_y
 _atom_site_fract_z
 _atom_site_occupancy
  Na  Na0  1  0.249983  0.016920  0.761063  1
  Na  Na1  1  0.250017  0.516920  0.238937  1
  Na  Na2  1  0.750017  0.983080  0.238937  1
  Na  Na3  1  0.749983  0.483080  0.761063  1
  B  B4  1  0.224343  0.090625  0.277862  1
  B  B5  1  0.275657  0.590625  0.722138  1
  B  B6  1  0.775657  0.909375  0.722138  1
  B  B7  1  0.724343  0.409375  0.277862  1
  H  H8  1  0.338538  0.910376  0.374754  1
  H  H9  1  0.161462  0.410376  0.625246  1
  H  H10  1  0.661462  0.089624  0.625246  1
  H  H11  1  0.838538  0.589624  0.374754  1
  H  H12  1  0.430994  0.186358  0.140839  1
  H  H13  1  0.069006  0.686358  0.859161  1
  H  H14  1  0.569006  0.813642  0.859161  1
  H  H15  1  0.930994  0.313642  0.140839  1
  H  H16  1  0.929275  0.126374  0.990430  1
  H  H17  1  0.570725  0.626374  0.009570  1
  H  H18  1  0.070725  0.873626  0.009570  1
  H  H19  1  0.429275  0.373626  0.990430  1
  H  H20  1  0.341331  0.241031  0.497577  1
  H  H21  1  0.158669  0.741031  0.502423  1
  H  H22  1  0.658669  0.758969  0.502423  1
  H  H23  1  0.841331  0.258969  0.497577  1
  O  O24  1  0.184023  0.956736  0.317824  1
  O  O25  1  0.315977  0.456736  0.682176  1
  O  O26  1  0.815977  0.043264  0.682176  1
  O  O27  1  0.684023  0.543264  0.317824  1
  O  O28  1  0.381153  0.098228  0.142831  1
  O  O29  1  0.118847  0.598228  0.857169  1
  O  O30  1  0.618847  0.901772  0.857169  1
  O  O31  1  0.881153  0.401772  0.142831  1
  O  O32  1  0.983381  0.149025  0.154972  1
  O  O33  1  0.516619  0.649025  0.845028  1
  O  O34  1  0.016619  0.850975  0.845028  1
  O  O35  1  0.483381  0.350975  0.154972  1
  O  O36  1  0.337704  0.150526  0.510665  1
  O  O37  1  0.162296  0.650526  0.489335  1
  O  O38  1  0.662296  0.849474  0.489335  1
  O  O39  1  0.837704  0.349474  0.510665  1
