# generated using pymatgen
data_V2FeO6
_symmetry_space_group_name_H-M   'P 1'
_cell_length_a   6.85764733
_cell_length_b   6.85764733
_cell_length_c   5.89004014
_cell_angle_alpha   74.77341880
_cell_angle_beta   105.22658120
_cell_angle_gamma   95.43574712
_symmetry_Int_Tables_number   1
_chemical_formula_structural   V2FeO6
_chemical_formula_sum   'V4 Fe2 O12'
_cell_volume   257.78773405
_cell_formula_units_Z   2
loop_
 _symmetry_equiv_pos_site_id
 _symmetry_equiv_pos_as_xyz
  1  'x, y, z'
loop_
 _atom_site_type_symbol
 _atom_site_label
 _atom_site_symmetry_multiplicity
 _atom_site_fract_x
 _atom_site_fract_y
 _atom_site_fract_z
 _atom_site_occupancy
  V  V0  1  0.389045  0.792613  0.763474  1
  V  V1  1  0.207387  0.610955  0.263474  1
  V  V2  1  0.792613  0.389045  0.736526  1
  V  V3  1  0.610955  0.207387  0.236526  1
  Fe  Fe4  1  0.915991  0.915991  0.750000  1
  Fe  Fe5  1  0.084009  0.084009  0.250000  1
  O  O6  1  0.197920  0.964332  0.645019  1
  O  O7  1  0.619024  0.907317  0.788020  1
  O  O8  1  0.035668  0.802080  0.145019  1
  O  O9  1  0.356407  0.633787  0.556959  1
  O  O10  1  0.907317  0.619024  0.711980  1
  O  O11  1  0.366213  0.643593  0.056959  1
  O  O12  1  0.633787  0.356407  0.943041  1
  O  O13  1  0.092683  0.380976  0.288020  1
  O  O14  1  0.643593  0.366213  0.443041  1
  O  O15  1  0.964332  0.197920  0.854981  1
  O  O16  1  0.380976  0.092683  0.211980  1
  O  O17  1  0.802080  0.035668  0.354981  1
