# generated using pymatgen
data_Gd3NbO7
_symmetry_space_group_name_H-M   'P 1'
_cell_length_a   6.46712841
_cell_length_b   6.55834661
_cell_length_c   7.70015898
_cell_angle_alpha   106.80411973
_cell_angle_beta   89.69330247
_cell_angle_gamma   97.39202603
_symmetry_Int_Tables_number   1
_chemical_formula_structural   Gd3NbO7
_chemical_formula_sum   'Gd6 Nb2 O14'
_cell_volume   309.87326946
_cell_formula_units_Z   2
loop_
 _symmetry_equiv_pos_site_id
 _symmetry_equiv_pos_as_xyz
  1  'x, y, z'
loop_
 _atom_site_type_symbol
 _atom_site_label
 _atom_site_symmetry_multiplicity
 _atom_site_fract_x
 _atom_site_fract_y
 _atom_site_fract_z
 _atom_site_occupancy
  Gd  Gd0  1  0.738845  0.462308  0.115881  1
  Gd  Gd1  1  0.737356  0.462123  0.610072  1
  Gd  Gd2  1  0.545699  0.993967  0.749331  1
  Gd  Gd3  1  0.454301  0.006033  0.250669  1
  Gd  Gd4  1  0.262644  0.537877  0.389928  1
  Gd  Gd5  1  0.261155  0.537692  0.884119  1
  Nb  Nb6  1  0.000000  0.000000  0.000000  1
  Nb  Nb7  1  0.000000  0.000000  0.500000  1
  O  O8  1  0.710365  0.066730  0.482447  1
  O  O9  1  0.924081  0.681954  0.956328  1
  O  O10  1  0.709207  0.071928  0.049598  1
  O  O11  1  0.929976  0.670619  0.389131  1
  O  O12  1  0.910242  0.944031  0.735053  1
  O  O13  1  0.559812  0.351893  0.834430  1
  O  O14  1  0.545186  0.362219  0.343121  1
  O  O15  1  0.454814  0.637781  0.656879  1
  O  O16  1  0.440188  0.648107  0.165570  1
  O  O17  1  0.089758  0.055969  0.264947  1
  O  O18  1  0.070024  0.329381  0.610869  1
  O  O19  1  0.290793  0.928072  0.950402  1
  O  O20  1  0.075919  0.318046  0.043672  1
  O  O21  1  0.289635  0.933270  0.517553  1
