# generated using pymatgen
data_Li2CrPHO5
_symmetry_space_group_name_H-M   'P 1'
_cell_length_a   5.55521484
_cell_length_b   5.58051402
_cell_length_c   7.37103286
_cell_angle_alpha   107.32993939
_cell_angle_beta   106.08867464
_cell_angle_gamma   89.82149317
_symmetry_Int_Tables_number   1
_chemical_formula_structural   Li2CrPHO5
_chemical_formula_sum   'Li4 Cr2 P2 H2 O10'
_cell_volume   208.80498755
_cell_formula_units_Z   2
loop_
 _symmetry_equiv_pos_site_id
 _symmetry_equiv_pos_as_xyz
  1  'x, y, z'
loop_
 _atom_site_type_symbol
 _atom_site_label
 _atom_site_symmetry_multiplicity
 _atom_site_fract_x
 _atom_site_fract_y
 _atom_site_fract_z
 _atom_site_occupancy
  Li  Li0  1  0.462659  0.115719  0.816989  1
  Li  Li1  1  0.792718  0.434512  0.808330  1
  Li  Li2  1  0.207282  0.565488  0.191670  1
  Li  Li3  1  0.537341  0.884281  0.183011  1
  Cr  Cr4  1  0.000000  0.000000  0.500000  1
  Cr  Cr5  1  0.000000  0.000000  0.000000  1
  P  P6  1  0.671541  0.372619  0.231051  1
  P  P7  1  0.328459  0.627381  0.768949  1
  H  H8  1  0.305806  0.089356  0.358548  1
  H  H9  1  0.694194  0.910644  0.641452  1
  O  O10  1  0.820428  0.052091  0.725930  1
  O  O11  1  0.733470  0.207527  0.371962  1
  O  O12  1  0.352655  0.349197  0.662845  1
  O  O13  1  0.410372  0.259169  0.077055  1
  O  O14  1  0.878289  0.352702  0.118027  1
  O  O15  1  0.121711  0.647298  0.881973  1
  O  O16  1  0.589628  0.740831  0.922945  1
  O  O17  1  0.647345  0.650803  0.337155  1
  O  O18  1  0.266530  0.792473  0.628038  1
  O  O19  1  0.179572  0.947909  0.274070  1
