# generated using pymatgen
data_Li2MnF4
_symmetry_space_group_name_H-M   'P 1'
_cell_length_a   8.99139915
_cell_length_b   8.99139915
_cell_length_c   8.99139915
_cell_angle_alpha   107.56056989
_cell_angle_beta   107.56056989
_cell_angle_gamma   107.56056989
_symmetry_Int_Tables_number   1
_chemical_formula_structural   Li2MnF4
_chemical_formula_sum   'Li12 Mn6 F24'
_cell_volume   595.87964118
_cell_formula_units_Z   6
loop_
 _symmetry_equiv_pos_site_id
 _symmetry_equiv_pos_as_xyz
  1  'x, y, z'
loop_
 _atom_site_type_symbol
 _atom_site_label
 _atom_site_symmetry_multiplicity
 _atom_site_fract_x
 _atom_site_fract_y
 _atom_site_fract_z
 _atom_site_occupancy
  Li  Li0  1  0.293049  0.918237  0.056598  1
  Li  Li1  1  0.943402  0.706951  0.081763  1
  Li  Li2  1  0.364246  0.645148  0.225113  1
  Li  Li3  1  0.081763  0.943402  0.706951  1
  Li  Li4  1  0.774887  0.635754  0.354852  1
  Li  Li5  1  0.354852  0.774887  0.635754  1
  Li  Li6  1  0.645148  0.225113  0.364246  1
  Li  Li7  1  0.225113  0.364246  0.645148  1
  Li  Li8  1  0.918237  0.056598  0.293049  1
  Li  Li9  1  0.635754  0.354852  0.774887  1
  Li  Li10  1  0.056598  0.293049  0.918237  1
  Li  Li11  1  0.706951  0.081763  0.943402  1
  Mn  Mn12  1  0.553144  0.706211  0.990440  1
  Mn  Mn13  1  0.293789  0.009560  0.446856  1
  Mn  Mn14  1  0.009560  0.446856  0.293789  1
  Mn  Mn15  1  0.990440  0.553144  0.706211  1
  Mn  Mn16  1  0.706211  0.990440  0.553144  1
  Mn  Mn17  1  0.446856  0.293789  0.009560  1
  F  F18  1  0.810240  0.827564  0.121358  1
  F  F19  1  0.389119  0.759650  0.084619  1
  F  F20  1  0.172436  0.878642  0.189760  1
  F  F21  1  0.240350  0.915381  0.610881  1
  F  F22  1  0.444942  0.816942  0.461306  1
  F  F23  1  0.154482  0.462785  0.154211  1
  F  F24  1  0.845789  0.845518  0.537215  1
  F  F25  1  0.915381  0.610881  0.240350  1
  F  F26  1  0.538694  0.555058  0.183058  1
  F  F27  1  0.183058  0.538694  0.555058  1
  F  F28  1  0.878642  0.189760  0.172436  1
  F  F29  1  0.537215  0.845789  0.845518  1
  F  F30  1  0.462785  0.154211  0.154482  1
  F  F31  1  0.121358  0.810240  0.827564  1
  F  F32  1  0.816942  0.461306  0.444942  1
  F  F33  1  0.461306  0.444942  0.816942  1
  F  F34  1  0.084619  0.389119  0.759650  1
  F  F35  1  0.154211  0.154482  0.462785  1
  F  F36  1  0.845518  0.537215  0.845789  1
  F  F37  1  0.555058  0.183058  0.538694  1
  F  F38  1  0.759650  0.084619  0.389119  1
  F  F39  1  0.827564  0.121358  0.810240  1
  F  F40  1  0.610881  0.240350  0.915381  1
  F  F41  1  0.189760  0.172436  0.878642  1
