# generated using pymatgen
data_Li3V2(PO4)3
_symmetry_space_group_name_H-M   'P 1'
_cell_length_a   8.75528371
_cell_length_b   8.75528371
_cell_length_c   8.73975709
_cell_angle_alpha   60.77142369
_cell_angle_beta   119.22857631
_cell_angle_gamma   120.31384287
_symmetry_Int_Tables_number   1
_chemical_formula_structural   Li3V2(PO4)3
_chemical_formula_sum   'Li6 V4 P6 O24'
_cell_volume   477.99975070
_cell_formula_units_Z   2
loop_
 _symmetry_equiv_pos_site_id
 _symmetry_equiv_pos_as_xyz
  1  'x, y, z'
loop_
 _atom_site_type_symbol
 _atom_site_label
 _atom_site_symmetry_multiplicity
 _atom_site_fract_x
 _atom_site_fract_y
 _atom_site_fract_z
 _atom_site_occupancy
  Li  Li0  1  0.650953  0.036246  0.176787  1
  Li  Li1  1  0.111252  0.740463  0.203951  1
  Li  Li2  1  0.963754  0.349047  0.676787  1
  Li  Li3  1  0.637176  0.620169  0.247637  1
  Li  Li4  1  0.379831  0.362824  0.747637  1
  Li  Li5  1  0.259537  0.888748  0.703951  1
  V  V6  1  0.643787  0.853369  0.858852  1
  V  V7  1  0.146631  0.356213  0.358852  1
  V  V8  1  0.356574  0.153280  0.140487  1
  V  V9  1  0.846720  0.643426  0.640487  1
  P  P10  1  0.526769  0.249898  0.540245  1
  P  P11  1  0.247387  0.528918  0.956418  1
  P  P12  1  0.750102  0.473231  0.040245  1
  P  P13  1  0.471082  0.752613  0.456418  1
  P  P14  1  0.048258  0.044721  0.754662  1
  P  P15  1  0.955279  0.951742  0.254662  1
  O  O16  1  0.522996  0.055385  0.683289  1
  O  O17  1  0.518904  0.755077  0.647896  1
  O  O18  1  0.109473  0.981610  0.193846  1
  O  O19  1  0.708239  0.619190  0.052356  1
  O  O20  1  0.944615  0.477004  0.183289  1
  O  O21  1  0.018390  0.890527  0.693846  1
  O  O22  1  0.759454  0.928105  0.099837  1
  O  O23  1  0.281090  0.378148  0.943469  1
  O  O24  1  0.066678  0.549915  0.794076  1
  O  O25  1  0.884857  0.009096  0.806224  1
  O  O26  1  0.403752  0.724317  0.919373  1
  O  O27  1  0.233236  0.058558  0.919379  1
  O  O28  1  0.380810  0.291761  0.552356  1
  O  O29  1  0.071895  0.240546  0.599837  1
  O  O30  1  0.275683  0.596248  0.419373  1
  O  O31  1  0.990904  0.115143  0.306224  1
  O  O32  1  0.601877  0.273768  0.084608  1
  O  O33  1  0.726232  0.398123  0.584608  1
  O  O34  1  0.736897  0.520376  0.841068  1
  O  O35  1  0.450085  0.933322  0.294076  1
  O  O36  1  0.244923  0.481096  0.147896  1
  O  O37  1  0.621852  0.718910  0.443469  1
  O  O38  1  0.941442  0.766764  0.419379  1
  O  O39  1  0.479624  0.263103  0.341068  1
