# generated using pymatgen
data_ZrCrCu2(PO4)3
_symmetry_space_group_name_H-M   'P 1'
_cell_length_a   8.84492288
_cell_length_b   8.86895050
_cell_length_c   8.91911251
_cell_angle_alpha   60.36523044
_cell_angle_beta   60.98696769
_cell_angle_gamma   60.62390189
_symmetry_Int_Tables_number   1
_chemical_formula_structural   ZrCrCu2(PO4)3
_chemical_formula_sum   'Zr2 Cr2 Cu4 P6 O24'
_cell_volume   502.06327343
_cell_formula_units_Z   2
loop_
 _symmetry_equiv_pos_site_id
 _symmetry_equiv_pos_as_xyz
  1  'x, y, z'
loop_
 _atom_site_type_symbol
 _atom_site_label
 _atom_site_symmetry_multiplicity
 _atom_site_fract_x
 _atom_site_fract_y
 _atom_site_fract_z
 _atom_site_occupancy
  Zr  Zr0  1  0.862295  0.425466  0.854947  1
  Zr  Zr1  1  0.141685  0.579100  0.145102  1
  Cr  Cr2  1  0.643032  0.074321  0.643572  1
  Cr  Cr3  1  0.356309  0.925993  0.355384  1
  Cu  Cu4  1  0.214988  0.106486  0.728974  1
  Cu  Cu5  1  0.610756  0.480064  0.352204  1
  Cu  Cu6  1  0.385413  0.520699  0.647581  1
  Cu  Cu7  1  0.858567  0.976528  0.115325  1
  P  P8  1  0.539152  0.239223  0.261269  1
  P  P9  1  0.260535  0.241366  0.964930  1
  P  P10  1  0.967447  0.237876  0.530369  1
  P  P11  1  0.033077  0.763805  0.465407  1
  P  P12  1  0.737341  0.761597  0.037112  1
  P  P13  1  0.456270  0.757814  0.741295  1
  O  O14  1  0.473378  0.945145  0.692834  1
  O  O15  1  0.867932  0.929704  0.501284  1
  O  O16  1  0.723483  0.237586  0.094126  1
  O  O17  1  0.687691  0.929639  0.880026  1
  O  O18  1  0.384744  0.417251  0.205754  1
  O  O19  1  0.569763  0.250376  0.413950  1
  O  O20  1  0.097139  0.245224  0.936771  1
  O  O21  1  0.418633  0.254824  0.775382  1
  O  O22  1  0.004590  0.582634  0.622432  1
  O  O23  1  0.779274  0.242224  0.559380  1
  O  O24  1  0.051949  0.759109  0.283269  1
  O  O25  1  0.799622  0.578230  0.007574  1
  O  O26  1  0.205716  0.421802  0.995073  1
  O  O27  1  0.961415  0.241250  0.710112  1
  O  O28  1  0.218856  0.757190  0.447301  1
  O  O29  1  0.995356  0.417833  0.374622  1
  O  O30  1  0.579715  0.745882  0.224914  1
  O  O31  1  0.900164  0.763904  0.063029  1
  O  O32  1  0.432837  0.747713  0.584449  1
  O  O33  1  0.625271  0.594643  0.785919  1
  O  O34  1  0.309018  0.069665  0.120269  1
  O  O35  1  0.282376  0.745225  0.908687  1
  O  O36  1  0.128732  0.068854  0.496881  1
  O  O37  1  0.505077  0.064956  0.313091  1
