# generated using pymatgen
data_Li3Fe2F7
_symmetry_space_group_name_H-M   'P 1'
_cell_length_a   7.68322896
_cell_length_b   10.51152925
_cell_length_c   9.60000477
_cell_angle_alpha   90.00000000
_cell_angle_beta   125.55329715
_cell_angle_gamma   90.00000000
_symmetry_Int_Tables_number   1
_chemical_formula_structural   Li3Fe2F7
_chemical_formula_sum   'Li12 Fe8 F28'
_cell_volume   630.78116505
_cell_formula_units_Z   4
loop_
 _symmetry_equiv_pos_site_id
 _symmetry_equiv_pos_as_xyz
  1  'x, y, z'
loop_
 _atom_site_type_symbol
 _atom_site_label
 _atom_site_symmetry_multiplicity
 _atom_site_fract_x
 _atom_site_fract_y
 _atom_site_fract_z
 _atom_site_occupancy
  Li  Li0  1  0.261802  0.087388  0.220678  1
  Li  Li1  1  0.640481  0.706106  0.528113  1
  Li  Li2  1  0.888069  0.413006  0.699814  1
  Li  Li3  1  0.738198  0.587388  0.279322  1
  Li  Li4  1  0.640481  0.793894  0.028113  1
  Li  Li5  1  0.111931  0.913006  0.800186  1
  Li  Li6  1  0.888069  0.086994  0.199814  1
  Li  Li7  1  0.359519  0.206106  0.971887  1
  Li  Li8  1  0.261802  0.412612  0.720678  1
  Li  Li9  1  0.111931  0.586994  0.300186  1
  Li  Li10  1  0.359519  0.293894  0.471887  1
  Li  Li11  1  0.738198  0.912612  0.779322  1
  Fe  Fe12  1  0.286309  0.779717  0.124351  1
  Fe  Fe13  1  0.238636  0.414730  0.110993  1
  Fe  Fe14  1  0.761364  0.914730  0.389007  1
  Fe  Fe15  1  0.713691  0.279717  0.375649  1
  Fe  Fe16  1  0.286309  0.720283  0.624351  1
  Fe  Fe17  1  0.238636  0.085270  0.610993  1
  Fe  Fe18  1  0.761364  0.585270  0.889007  1
  Fe  Fe19  1  0.713691  0.220283  0.875649  1
  F  F20  1  0.431100  0.949026  0.249055  1
  F  F21  1  0.777690  0.877323  0.601629  1
  F  F22  1  0.395455  0.223805  0.189096  1
  F  F23  1  0.650981  0.297037  0.560886  1
  F  F24  1  0.875664  0.388635  0.916215  1
  F  F25  1  0.802125  0.585945  0.702118  1
  F  F26  1  0.020481  0.876299  0.947064  1
  F  F27  1  0.604545  0.723805  0.310904  1
  F  F28  1  0.568900  0.449026  0.250945  1
  F  F29  1  0.777690  0.622677  0.101629  1
  F  F30  1  0.979519  0.376299  0.552936  1
  F  F31  1  0.650981  0.202963  0.060886  1
  F  F32  1  0.197875  0.085945  0.797882  1
  F  F33  1  0.875664  0.111365  0.416215  1
  F  F34  1  0.124336  0.888635  0.583785  1
  F  F35  1  0.802125  0.914055  0.202118  1
  F  F36  1  0.349019  0.797037  0.939114  1
  F  F37  1  0.020481  0.623701  0.447064  1
  F  F38  1  0.222310  0.377323  0.898371  1
  F  F39  1  0.431100  0.550974  0.749055  1
  F  F40  1  0.395455  0.276195  0.689096  1
  F  F41  1  0.979519  0.123701  0.052936  1
  F  F42  1  0.197875  0.414055  0.297882  1
  F  F43  1  0.124336  0.611365  0.083785  1
  F  F44  1  0.349019  0.702963  0.439114  1
  F  F45  1  0.604545  0.776195  0.810904  1
  F  F46  1  0.222310  0.122677  0.398371  1
  F  F47  1  0.568900  0.050974  0.750945  1
