# generated using pymatgen
data_Mn(AsO2)2
_symmetry_space_group_name_H-M   'P 1'
_cell_length_a   8.72193522
_cell_length_b   8.72193522
_cell_length_c   5.90052841
_cell_angle_alpha   90.00000000
_cell_angle_beta   90.00000000
_cell_angle_gamma   90.00000000
_symmetry_Int_Tables_number   1
_chemical_formula_structural   Mn(AsO2)2
_chemical_formula_sum   'Mn4 As8 O16'
_cell_volume   448.86590527
_cell_formula_units_Z   4
loop_
 _symmetry_equiv_pos_site_id
 _symmetry_equiv_pos_as_xyz
  1  'x, y, z'
loop_
 _atom_site_type_symbol
 _atom_site_label
 _atom_site_symmetry_multiplicity
 _atom_site_fract_x
 _atom_site_fract_y
 _atom_site_fract_z
 _atom_site_occupancy
  Mn  Mn0  1  0.500000  0.000000  0.250000  1
  Mn  Mn1  1  0.500000  0.000000  0.750000  1
  Mn  Mn2  1  0.000000  0.500000  0.250000  1
  Mn  Mn3  1  0.000000  0.500000  0.750000  1
  As  As4  1  0.807531  0.176075  0.500000  1
  As  As5  1  0.176075  0.192469  0.000000  1
  As  As6  1  0.676075  0.307531  0.000000  1
  As  As7  1  0.307531  0.323925  0.500000  1
  As  As8  1  0.692469  0.676075  0.500000  1
  As  As9  1  0.323925  0.692469  0.000000  1
  As  As10  1  0.823925  0.807531  0.000000  1
  As  As11  1  0.192469  0.823925  0.500000  1
  O  O12  1  0.641119  0.108790  0.000000  1
  O  O13  1  0.608790  0.141119  0.500000  1
  O  O14  1  0.314632  0.185368  0.250000  1
  O  O15  1  0.314632  0.185368  0.750000  1
  O  O16  1  0.814632  0.314632  0.250000  1
  O  O17  1  0.814632  0.314632  0.750000  1
  O  O18  1  0.108790  0.358881  0.500000  1
  O  O19  1  0.141119  0.391210  0.000000  1
  O  O20  1  0.858881  0.608790  0.000000  1
  O  O21  1  0.891210  0.641119  0.500000  1
  O  O22  1  0.185368  0.685368  0.250000  1
  O  O23  1  0.185368  0.685368  0.750000  1
  O  O24  1  0.685368  0.814632  0.250000  1
  O  O25  1  0.685368  0.814632  0.750000  1
  O  O26  1  0.391210  0.858881  0.500000  1
  O  O27  1  0.358881  0.891210  0.000000  1
