# generated using pymatgen
data_LiNiP2O7
_symmetry_space_group_name_H-M   'P 1'
_cell_length_a   7.19952232
_cell_length_b   7.98762220
_cell_length_c   9.42496041
_cell_angle_alpha   90.00000000
_cell_angle_beta   109.64888013
_cell_angle_gamma   90.00000000
_symmetry_Int_Tables_number   1
_chemical_formula_structural   LiNiP2O7
_chemical_formula_sum   'Li4 Ni4 P8 O28'
_cell_volume   510.44154369
_cell_formula_units_Z   4
loop_
 _symmetry_equiv_pos_site_id
 _symmetry_equiv_pos_as_xyz
  1  'x, y, z'
loop_
 _atom_site_type_symbol
 _atom_site_label
 _atom_site_symmetry_multiplicity
 _atom_site_fract_x
 _atom_site_fract_y
 _atom_site_fract_z
 _atom_site_occupancy
  Li  Li0  1  0.196049  0.527014  0.716486  1
  Li  Li1  1  0.803951  0.472986  0.283514  1
  Li  Li2  1  0.196049  0.972986  0.216486  1
  Li  Li3  1  0.803951  0.027014  0.783514  1
  Ni  Ni4  1  0.239616  0.504589  0.251749  1
  Ni  Ni5  1  0.760384  0.495411  0.748251  1
  Ni  Ni6  1  0.760384  0.004589  0.248251  1
  Ni  Ni7  1  0.239616  0.995411  0.751749  1
  P  P8  1  0.170432  0.209241  0.451362  1
  P  P9  1  0.584225  0.263007  0.454775  1
  P  P10  1  0.584225  0.236993  0.954775  1
  P  P11  1  0.170432  0.290759  0.951362  1
  P  P12  1  0.829568  0.709241  0.048638  1
  P  P13  1  0.415775  0.763007  0.045225  1
  P  P14  1  0.415775  0.736993  0.545225  1
  P  P15  1  0.829568  0.790759  0.548638  1
  O  O16  1  0.879831  0.608261  0.600751  1
  O  O17  1  0.288900  0.637790  0.092923  1
  O  O18  1  0.711100  0.362210  0.907077  1
  O  O19  1  0.464791  0.579479  0.643437  1
  O  O20  1  0.382800  0.336276  0.935427  1
  O  O21  1  0.382800  0.163724  0.435427  1
  O  O22  1  0.464791  0.920521  0.143437  1
  O  O23  1  0.185595  0.200342  0.617024  1
  O  O24  1  0.047587  0.422301  0.843325  1
  O  O25  1  0.309473  0.712363  0.375471  1
  O  O26  1  0.711100  0.137790  0.407077  1
  O  O27  1  0.952413  0.922301  0.656675  1
  O  O28  1  0.814405  0.799658  0.382976  1
  O  O29  1  0.185595  0.299658  0.117024  1
  O  O30  1  0.879831  0.891739  0.100751  1
  O  O31  1  0.617200  0.836276  0.564573  1
  O  O32  1  0.288900  0.862210  0.592923  1
  O  O33  1  0.309473  0.787637  0.875471  1
  O  O34  1  0.535209  0.079479  0.856563  1
  O  O35  1  0.120169  0.391739  0.399249  1
  O  O36  1  0.814405  0.700342  0.882976  1
  O  O37  1  0.120169  0.108261  0.899249  1
  O  O38  1  0.690527  0.287637  0.624529  1
  O  O39  1  0.535209  0.420521  0.356563  1
  O  O40  1  0.047587  0.077699  0.343325  1
  O  O41  1  0.952413  0.577699  0.156675  1
  O  O42  1  0.690527  0.212363  0.124529  1
  O  O43  1  0.617200  0.663724  0.064573  1
