# generated using pymatgen
data_Na8CoO6
_symmetry_space_group_name_H-M   'P 1'
_cell_length_a   6.36215037
_cell_length_b   6.36215037
_cell_length_c   12.70995171
_cell_angle_alpha   90.00000000
_cell_angle_beta   90.00000000
_cell_angle_gamma   120.00000000
_symmetry_Int_Tables_number   1
_chemical_formula_structural   Na8CoO6
_chemical_formula_sum   'Na16 Co2 O12'
_cell_volume   445.53557916
_cell_formula_units_Z   2
loop_
 _symmetry_equiv_pos_site_id
 _symmetry_equiv_pos_as_xyz
  1  'x, y, z'
loop_
 _atom_site_type_symbol
 _atom_site_label
 _atom_site_symmetry_multiplicity
 _atom_site_fract_x
 _atom_site_fract_y
 _atom_site_fract_z
 _atom_site_occupancy
  Na  Na0  1  0.000000  0.703040  0.769930  1
  Na  Na1  1  0.000000  0.614555  0.123902  1
  Na  Na2  1  0.000000  0.385445  0.623902  1
  Na  Na3  1  0.000000  0.296960  0.269930  1
  Na  Na4  1  0.333333  0.666667  0.412466  1
  Na  Na5  1  0.333333  0.666667  0.912466  1
  Na  Na6  1  0.296960  0.296960  0.769930  1
  Na  Na7  1  0.385445  0.385445  0.123902  1
  Na  Na8  1  0.614555  0.614555  0.623902  1
  Na  Na9  1  0.296960  0.000000  0.269930  1
  Na  Na10  1  0.703040  0.703040  0.269930  1
  Na  Na11  1  0.385445  0.000000  0.623902  1
  Na  Na12  1  0.666667  0.333333  0.912466  1
  Na  Na13  1  0.666667  0.333333  0.412466  1
  Na  Na14  1  0.614555  0.000000  0.123902  1
  Na  Na15  1  0.703040  0.000000  0.769930  1
  Co  Co16  1  0.000000  0.000000  0.996969  1
  Co  Co17  1  0.000000  0.000000  0.496969  1
  O  O18  1  0.000000  0.728540  0.952068  1
  O  O19  1  0.000000  0.271460  0.452068  1
  O  O20  1  0.333333  0.666667  0.221232  1
  O  O21  1  0.000000  0.000000  0.143536  1
  O  O22  1  0.000000  0.000000  0.643536  1
  O  O23  1  0.333333  0.666667  0.721232  1
  O  O24  1  0.271460  0.271460  0.952068  1
  O  O25  1  0.271460  0.000000  0.452068  1
  O  O26  1  0.728540  0.728540  0.452068  1
  O  O27  1  0.666667  0.333333  0.721232  1
  O  O28  1  0.666667  0.333333  0.221232  1
  O  O29  1  0.728540  0.000000  0.952068  1
