# generated using pymatgen
data_Li2Mn(FeO3)2
_symmetry_space_group_name_H-M   'P 1'
_cell_length_a   6.70192152
_cell_length_b   6.73787557
_cell_length_c   8.42105866
_cell_angle_alpha   71.07402330
_cell_angle_beta   70.74166370
_cell_angle_gamma   83.07259588
_symmetry_Int_Tables_number   1
_chemical_formula_structural   Li2Mn(FeO3)2
_chemical_formula_sum   'Li6 Mn3 Fe6 O18'
_cell_volume   339.54092961
_cell_formula_units_Z   3
loop_
 _symmetry_equiv_pos_site_id
 _symmetry_equiv_pos_as_xyz
  1  'x, y, z'
loop_
 _atom_site_type_symbol
 _atom_site_label
 _atom_site_symmetry_multiplicity
 _atom_site_fract_x
 _atom_site_fract_y
 _atom_site_fract_z
 _atom_site_occupancy
  Li  Li0  1  0.499970  0.827014  0.668490  1
  Li  Li1  1  0.168128  0.825652  0.002480  1
  Li  Li2  1  0.167851  0.502431  0.328781  1
  Li  Li3  1  0.832149  0.497569  0.671219  1
  Li  Li4  1  0.831872  0.174348  0.997520  1
  Li  Li5  1  0.500030  0.172986  0.331510  1
  Mn  Mn6  1  0.500000  0.500000  0.500000  1
  Mn  Mn7  1  0.168234  0.499143  0.833686  1
  Mn  Mn8  1  0.831766  0.500857  0.166314  1
  Fe  Fe9  1  0.831702  0.842059  0.832096  1
  Fe  Fe10  1  0.502915  0.834096  0.164592  1
  Fe  Fe11  1  0.163340  0.837944  0.498386  1
  Fe  Fe12  1  0.497085  0.165904  0.835408  1
  Fe  Fe13  1  0.168298  0.157941  0.167904  1
  Fe  Fe14  1  0.836660  0.162056  0.501614  1
  O  O15  1  0.823134  0.806289  0.078487  1
  O  O16  1  0.480670  0.805288  0.422604  1
  O  O17  1  0.158078  0.798839  0.755142  1
  O  O18  1  0.812758  0.486839  0.409030  1
  O  O19  1  0.479998  0.493418  0.736446  1
  O  O20  1  0.814818  0.162099  0.750605  1
  O  O21  1  0.520002  0.506582  0.263554  1
  O  O22  1  0.187242  0.513161  0.590970  1
  O  O23  1  0.519330  0.194712  0.577396  1
  O  O24  1  0.136998  0.494405  0.078262  1
  O  O25  1  0.491483  0.146046  0.086221  1
  O  O26  1  0.156287  0.156583  0.407019  1
  O  O27  1  0.863002  0.505595  0.921738  1
  O  O28  1  0.176866  0.193711  0.921513  1
  O  O29  1  0.841922  0.201161  0.244858  1
  O  O30  1  0.508517  0.853954  0.913779  1
  O  O31  1  0.185182  0.837901  0.249395  1
  O  O32  1  0.843713  0.843417  0.592981  1
