# generated using pymatgen
data_LiTi(PO3)4
_symmetry_space_group_name_H-M   'P 1'
_cell_length_a   5.15495373
_cell_length_b   13.82714474
_cell_length_c   7.13287573
_cell_angle_alpha   90.00000000
_cell_angle_beta   94.60080516
_cell_angle_gamma   90.00000000
_symmetry_Int_Tables_number   1
_chemical_formula_structural   LiTi(PO3)4
_chemical_formula_sum   'Li2 Ti2 P8 O24'
_cell_volume   506.78094118
_cell_formula_units_Z   2
loop_
 _symmetry_equiv_pos_site_id
 _symmetry_equiv_pos_as_xyz
  1  'x, y, z'
loop_
 _atom_site_type_symbol
 _atom_site_label
 _atom_site_symmetry_multiplicity
 _atom_site_fract_x
 _atom_site_fract_y
 _atom_site_fract_z
 _atom_site_occupancy
  Li  Li0  1  0.575806  0.012617  0.116396  1
  Li  Li1  1  0.424194  0.512617  0.883604  1
  Ti  Ti2  1  0.509226  0.236026  0.512256  1
  Ti  Ti3  1  0.490774  0.736026  0.487744  1
  P  P4  1  0.035623  0.095339  0.554679  1
  P  P5  1  0.984510  0.377319  0.456623  1
  P  P6  1  0.139046  0.671386  0.091688  1
  P  P7  1  0.221561  0.321214  0.112132  1
  P  P8  1  0.778439  0.821214  0.887868  1
  P  P9  1  0.860954  0.171386  0.908312  1
  P  P10  1  0.015490  0.877319  0.543377  1
  P  P11  1  0.964377  0.595339  0.445321  1
  O  O12  1  0.052094  0.261434  0.953708  1
  O  O13  1  0.040378  0.105639  0.779593  1
  O  O14  1  0.009188  0.862269  0.765831  1
  O  O15  1  0.188804  0.614051  0.922243  1
  O  O16  1  0.073312  0.488163  0.487560  1
  O  O17  1  0.166293  0.661282  0.538018  1
  O  O18  1  0.191597  0.318602  0.563661  1
  O  O19  1  0.308680  0.102740  0.496445  1
  O  O20  1  0.290106  0.867051  0.488922  1
  O  O21  1  0.386855  0.252708  0.236965  1
  O  O22  1  0.370096  0.710036  0.213580  1
  O  O23  1  0.352647  0.401276  0.017636  1
  O  O24  1  0.647353  0.901276  0.982364  1
  O  O25  1  0.629904  0.210036  0.786420  1
  O  O26  1  0.613145  0.752708  0.763035  1
  O  O27  1  0.709894  0.367051  0.511078  1
  O  O28  1  0.691320  0.602740  0.503555  1
  O  O29  1  0.808403  0.818602  0.436339  1
  O  O30  1  0.833707  0.161282  0.461982  1
  O  O31  1  0.926688  0.988163  0.512440  1
  O  O32  1  0.811196  0.114051  0.077757  1
  O  O33  1  0.990812  0.362269  0.234169  1
  O  O34  1  0.959622  0.605639  0.220407  1
  O  O35  1  0.947906  0.761434  0.046292  1
