# generated using pymatgen
data_LiMn2F7
_symmetry_space_group_name_H-M   'P 1'
_cell_length_a   7.50873512
_cell_length_b   5.09576002
_cell_length_c   13.25818535
_cell_angle_alpha   90.00000000
_cell_angle_beta   98.12546977
_cell_angle_gamma   90.00000000
_symmetry_Int_Tables_number   1
_chemical_formula_structural   LiMn2F7
_chemical_formula_sum   'Li4 Mn8 F28'
_cell_volume   502.20136694
_cell_formula_units_Z   4
loop_
 _symmetry_equiv_pos_site_id
 _symmetry_equiv_pos_as_xyz
  1  'x, y, z'
loop_
 _atom_site_type_symbol
 _atom_site_label
 _atom_site_symmetry_multiplicity
 _atom_site_fract_x
 _atom_site_fract_y
 _atom_site_fract_z
 _atom_site_occupancy
  Li  Li0  1  0.857810  0.280344  0.440241  1
  Li  Li1  1  0.599560  0.772941  0.571799  1
  Li  Li2  1  0.400440  0.272941  0.428201  1
  Li  Li3  1  0.142190  0.780344  0.559759  1
  Mn  Mn4  1  0.975398  0.770351  0.893419  1
  Mn  Mn5  1  0.918694  0.261431  0.682516  1
  Mn  Mn6  1  0.582311  0.761329  0.316612  1
  Mn  Mn7  1  0.525080  0.261113  0.105300  1
  Mn  Mn8  1  0.474920  0.761113  0.894700  1
  Mn  Mn9  1  0.417689  0.261329  0.683388  1
  Mn  Mn10  1  0.081306  0.761431  0.317484  1
  Mn  Mn11  1  0.024602  0.270351  0.106581  1
  F  F12  1  0.989123  0.951958  0.201562  1
  F  F13  1  0.949001  0.537023  0.589802  1
  F  F14  1  0.823947  0.612274  0.334611  1
  F  F15  1  0.782160  0.372245  0.118028  1
  F  F16  1  0.828014  0.056934  0.571926  1
  F  F17  1  0.941968  0.090544  0.986765  1
  F  F18  1  0.886421  0.959542  0.772157  1
  F  F19  1  0.593810  0.960954  0.179999  1
  F  F20  1  0.652771  0.069625  0.383283  1
  F  F21  1  0.733759  0.660381  0.903019  1
  F  F22  1  0.659290  0.400982  0.689797  1
  F  F23  1  0.562031  0.570245  0.449466  1
  F  F24  1  0.498888  0.461421  0.240001  1
  F  F25  1  0.457547  0.560758  0.027695  1
  F  F26  1  0.542453  0.060758  0.972305  1
  F  F27  1  0.501112  0.961421  0.759999  1
  F  F28  1  0.437969  0.070245  0.550534  1
  F  F29  1  0.340710  0.900982  0.310203  1
  F  F30  1  0.266241  0.160381  0.096981  1
  F  F31  1  0.347229  0.569625  0.616717  1
  F  F32  1  0.406190  0.460954  0.820001  1
  F  F33  1  0.113579  0.459542  0.227843  1
  F  F34  1  0.058032  0.590544  0.013235  1
  F  F35  1  0.171986  0.556934  0.428074  1
  F  F36  1  0.217840  0.872245  0.881972  1
  F  F37  1  0.176053  0.112274  0.665389  1
  F  F38  1  0.050999  0.037023  0.410198  1
  F  F39  1  0.010877  0.451958  0.798438  1
