# generated using pymatgen
data_Li2CoSiO4
_symmetry_space_group_name_H-M   'P 1'
_cell_length_a   5.01393584
_cell_length_b   6.18073509
_cell_length_c   10.90044845
_cell_angle_alpha   90.00000000
_cell_angle_beta   90.00000000
_cell_angle_gamma   90.00000000
_symmetry_Int_Tables_number   1
_chemical_formula_structural   Li2CoSiO4
_chemical_formula_sum   'Li8 Co4 Si4 O16'
_cell_volume   337.80281748
_cell_formula_units_Z   4
loop_
 _symmetry_equiv_pos_site_id
 _symmetry_equiv_pos_as_xyz
  1  'x, y, z'
loop_
 _atom_site_type_symbol
 _atom_site_label
 _atom_site_symmetry_multiplicity
 _atom_site_fract_x
 _atom_site_fract_y
 _atom_site_fract_z
 _atom_site_occupancy
  Li  Li0  1  0.317186  0.998837  0.587261  1
  Li  Li1  1  0.682814  0.001163  0.412739  1
  Li  Li2  1  0.182814  0.998837  0.087261  1
  Li  Li3  1  0.317186  0.501163  0.587261  1
  Li  Li4  1  0.182814  0.501163  0.087261  1
  Li  Li5  1  0.817186  0.498837  0.912739  1
  Li  Li6  1  0.682814  0.498837  0.412739  1
  Li  Li7  1  0.817186  0.001163  0.912739  1
  Co  Co8  1  0.178836  0.750000  0.330765  1
  Co  Co9  1  0.321164  0.750000  0.830765  1
  Co  Co10  1  0.678836  0.250000  0.169235  1
  Co  Co11  1  0.821164  0.250000  0.669235  1
  Si  Si12  1  0.674017  0.750000  0.163183  1
  Si  Si13  1  0.825983  0.750000  0.663183  1
  Si  Si14  1  0.325983  0.250000  0.836817  1
  Si  Si15  1  0.174017  0.250000  0.336817  1
  O  O16  1  0.783122  0.968837  0.091321  1
  O  O17  1  0.716878  0.968837  0.591321  1
  O  O18  1  0.344367  0.750000  0.164186  1
  O  O19  1  0.720244  0.750000  0.807575  1
  O  O20  1  0.779756  0.750000  0.307575  1
  O  O21  1  0.155633  0.750000  0.664186  1
  O  O22  1  0.783122  0.531163  0.091321  1
  O  O23  1  0.716878  0.531163  0.591321  1
  O  O24  1  0.216878  0.468837  0.908679  1
  O  O25  1  0.283122  0.468837  0.408679  1
  O  O26  1  0.220244  0.250000  0.692425  1
  O  O27  1  0.844367  0.250000  0.335814  1
  O  O28  1  0.279756  0.250000  0.192425  1
  O  O29  1  0.655633  0.250000  0.835814  1
  O  O30  1  0.216878  0.031163  0.908679  1
  O  O31  1  0.283122  0.031163  0.408679  1
