# generated using pymatgen
data_LiCu2PO4
_symmetry_space_group_name_H-M   'P 1'
_cell_length_a   5.56877252
_cell_length_b   6.19853737
_cell_length_c   10.31721945
_cell_angle_alpha   89.73551424
_cell_angle_beta   88.81375653
_cell_angle_gamma   88.88683427
_symmetry_Int_Tables_number   1
_chemical_formula_structural   LiCu2PO4
_chemical_formula_sum   'Li4 Cu8 P4 O16'
_cell_volume   355.98561870
_cell_formula_units_Z   4
loop_
 _symmetry_equiv_pos_site_id
 _symmetry_equiv_pos_as_xyz
  1  'x, y, z'
loop_
 _atom_site_type_symbol
 _atom_site_label
 _atom_site_symmetry_multiplicity
 _atom_site_fract_x
 _atom_site_fract_y
 _atom_site_fract_z
 _atom_site_occupancy
  Li  Li0  1  0.146773  0.000015  0.248249  1
  Li  Li1  1  0.156634  0.001989  0.751804  1
  Li  Li2  1  0.326784  0.251791  0.998784  1
  Li  Li3  1  0.675192  0.254184  0.757368  1
  Cu  Cu4  1  0.366440  0.264929  0.488448  1
  Cu  Cu5  1  0.658868  0.278169  0.260714  1
  Cu  Cu6  1  0.770442  0.511747  0.011213  1
  Cu  Cu7  1  0.761951  0.496278  0.503355  1
  Cu  Cu8  1  0.651703  0.719248  0.262493  1
  Cu  Cu9  1  0.652874  0.717025  0.770606  1
  Cu  Cu10  1  0.356417  0.737670  0.493579  1
  Cu  Cu11  1  0.355646  0.740769  0.993426  1
  P  P12  1  0.839282  0.012396  0.997320  1
  P  P13  1  0.847386  0.999686  0.506589  1
  P  P14  1  0.175902  0.491948  0.750284  1
  P  P15  1  0.176485  0.499584  0.243075  1
  O  O16  1  0.847198  0.006644  0.356194  1
  O  O17  1  0.105764  0.996084  0.560466  1
  O  O18  1  0.839970  0.004101  0.847043  1
  O  O19  1  0.097466  0.017170  0.051342  1
  O  O20  1  0.703119  0.197812  0.566155  1
  O  O21  1  0.682127  0.212170  0.043434  1
  O  O22  1  0.317647  0.293736  0.805153  1
  O  O23  1  0.300347  0.284695  0.291394  1
  O  O24  1  0.180507  0.497402  0.093474  1
  O  O25  1  0.916794  0.501439  0.301007  1
  O  O26  1  0.180151  0.491806  0.599516  1
  O  O27  1  0.910550  0.487413  0.802518  1
  O  O28  1  0.297121  0.710346  0.292107  1
  O  O29  1  0.294637  0.708916  0.796455  1
  O  O30  1  0.704241  0.799567  0.557497  1
  O  O31  1  0.703586  0.813267  0.056345  1
