# generated using pymatgen
data_Al2Si4O11
_symmetry_space_group_name_H-M   'P 1'
_cell_length_a   5.22775152
_cell_length_b   5.23328163
_cell_length_c   9.72032170
_cell_angle_alpha   80.92939954
_cell_angle_beta   85.01722486
_cell_angle_gamma   61.25124580
_symmetry_Int_Tables_number   1
_chemical_formula_structural   Al2Si4O11
_chemical_formula_sum   'Al2 Si4 O11'
_cell_volume   230.21769535
_cell_formula_units_Z   1
loop_
 _symmetry_equiv_pos_site_id
 _symmetry_equiv_pos_as_xyz
  1  'x, y, z'
loop_
 _atom_site_type_symbol
 _atom_site_label
 _atom_site_symmetry_multiplicity
 _atom_site_fract_x
 _atom_site_fract_y
 _atom_site_fract_z
 _atom_site_occupancy
  Al  Al0  1  0.686436  0.686908  0.999950  1
  Al  Al1  1  0.313564  0.313092  0.000050  1
  Si  Si2  1  0.023920  0.714979  0.712009  1
  Si  Si3  1  0.976080  0.285021  0.287991  1
  Si  Si4  1  0.373371  0.066013  0.711654  1
  Si  Si5  1  0.626629  0.933987  0.288346  1
  O  O6  1  0.500000  0.500000  0.000000  1
  O  O7  1  0.995225  0.618764  0.880341  1
  O  O8  1  0.004775  0.381236  0.119659  1
  O  O9  1  0.416989  0.041402  0.880443  1
  O  O10  1  0.583011  0.958598  0.119557  1
  O  O11  1  0.241285  0.412287  0.646426  1
  O  O12  1  0.758715  0.587713  0.353574  1
  O  O13  1  0.697272  0.869122  0.646254  1
  O  O14  1  0.302728  0.130878  0.353746  1
  O  O15  1  0.152832  0.946193  0.678738  1
  O  O16  1  0.847168  0.053807  0.321262  1
