# generated using pymatgen
data_Li24Ti5Cr7O36
_symmetry_space_group_name_H-M   'P 1'
_cell_length_a   5.05169576
_cell_length_b   9.78413785
_cell_length_c   13.39815196
_cell_angle_alpha   97.18501220
_cell_angle_beta   100.66401116
_cell_angle_gamma   94.68122923
_symmetry_Int_Tables_number   1
_chemical_formula_structural   Li24Ti5Cr7O36
_chemical_formula_sum   'Li24 Ti5 Cr7 O36'
_cell_volume   641.93858893
_cell_formula_units_Z   1
loop_
 _symmetry_equiv_pos_site_id
 _symmetry_equiv_pos_as_xyz
  1  'x, y, z'
loop_
 _atom_site_type_symbol
 _atom_site_label
 _atom_site_symmetry_multiplicity
 _atom_site_fract_x
 _atom_site_fract_y
 _atom_site_fract_z
 _atom_site_occupancy
  Li  Li0  1  0.164644  0.001288  0.833161  1
  Li  Li1  1  0.049667  0.000763  0.614477  1
  Li  Li2  1  0.997633  0.750934  0.249812  1
  Li  Li3  1  0.333130  0.750345  0.917188  1
  Li  Li4  1  0.046207  0.497288  0.112288  1
  Li  Li5  1  0.376623  0.500895  0.778906  1
  Li  Li6  1  0.173584  0.498854  0.332865  1
  Li  Li7  1  0.501171  0.502126  0.998844  1
  Li  Li8  1  0.284374  0.501361  0.554759  1
  Li  Li9  1  0.334929  0.249713  0.415219  1
  Li  Li10  1  0.509305  0.999241  0.497814  1
  Li  Li11  1  0.282392  0.000859  0.052587  1
  Li  Li12  1  0.614342  0.997781  0.718365  1
  Li  Li13  1  0.381764  0.999329  0.280398  1
  Li  Li14  1  0.718553  0.000012  0.947454  1
  Li  Li15  1  0.663630  0.750044  0.582622  1
  Li  Li16  1  0.706743  0.499658  0.445615  1
  Li  Li17  1  0.841244  0.499548  0.665551  1
  Li  Li18  1  0.621276  0.502059  0.222728  1
  Li  Li19  1  0.953528  0.498364  0.887378  1
  Li  Li20  1  0.666405  0.250373  0.083914  1
  Li  Li21  1  0.833288  0.998335  0.167703  1
  Li  Li22  1  0.000689  0.250156  0.750383  1
  Li  Li23  1  0.949295  0.999824  0.387494  1
  Ti  Ti24  1  0.112806  0.750363  0.472965  1
  Ti  Ti25  1  0.448843  0.255750  0.639468  1
  Ti  Ti26  1  0.552378  0.245112  0.860394  1
  Ti  Ti27  1  0.776003  0.746184  0.807784  1
  Ti  Ti28  1  0.772907  0.248745  0.306170  1
  Cr  Cr29  1  0.104664  0.249996  0.974384  1
  Cr  Cr30  1  0.219194  0.751267  0.694341  1
  Cr  Cr31  1  0.225541  0.251753  0.193094  1
  Cr  Cr32  1  0.445646  0.751825  0.135326  1
  Cr  Cr33  1  0.552106  0.748769  0.358008  1
  Cr  Cr34  1  0.895601  0.248479  0.526438  1
  Cr  Cr35  1  0.894384  0.750704  0.031387  1
  O  O36  1  0.999035  0.862036  0.930865  1
  O  O37  1  0.069644  0.633548  0.787092  1
  O  O38  1  0.999491  0.362630  0.431840  1
  O  O39  1  0.145971  0.363668  0.644428  1
  O  O40  1  0.262424  0.364066  0.884217  1
  O  O41  1  0.335607  0.864518  0.594029  1
  O  O42  1  0.071462  0.135951  0.283157  1
  O  O43  1  0.181409  0.137587  0.521502  1
  O  O44  1  0.401678  0.135656  0.953645  1
  O  O45  1  0.133481  0.862314  0.140570  1
  O  O46  1  0.269159  0.864802  0.380151  1
  O  O47  1  0.471690  0.861809  0.809426  1
  O  O48  1  0.333728  0.136038  0.737710  1
  O  O49  1  0.199922  0.637272  0.027704  1
  O  O50  1  0.399383  0.632345  0.451776  1
  O  O51  1  0.519305  0.638662  0.689860  1
  O  O52  1  0.337430  0.641158  0.238907  1
  O  O53  1  0.668017  0.636775  0.907199  1
  O  O54  1  0.337192  0.361516  0.099556  1
  O  O55  1  0.667232  0.364789  0.762582  1
  O  O56  1  0.479325  0.365147  0.310964  1
  O  O57  1  0.598210  0.363989  0.546371  1
  O  O58  1  0.818773  0.363169  0.978422  1
  O  O59  1  0.665121  0.862178  0.258374  1
  O  O60  1  0.514724  0.136786  0.188776  1
  O  O61  1  0.739447  0.136353  0.616765  1
  O  O62  1  0.854289  0.135690  0.856141  1
  O  O63  1  0.591770  0.865296  0.050152  1
  O  O64  1  0.804689  0.861042  0.474139  1
  O  O65  1  0.936665  0.864890  0.714694  1
  O  O66  1  0.662023  0.135144  0.402472  1
  O  O67  1  0.743467  0.635759  0.116110  1
  O  O68  1  0.852346  0.637487  0.355574  1
  O  O69  1  0.001096  0.638520  0.575177  1
  O  O70  1  0.933625  0.364615  0.214422  1
  O  O71  1  0.996676  0.138696  0.067945  1
