# generated using pymatgen
data_NaLi2MnPCO7
_symmetry_space_group_name_H-M   'P 1'
_cell_length_a   6.71940228
_cell_length_b   8.66575200
_cell_length_c   10.13029496
_cell_angle_alpha   91.44692319
_cell_angle_beta   90.03571012
_cell_angle_gamma   90.18515309
_symmetry_Int_Tables_number   1
_chemical_formula_structural   NaLi2MnPCO7
_chemical_formula_sum   'Na4 Li8 Mn4 P4 C4 O28'
_cell_volume   589.68233043
_cell_formula_units_Z   4
loop_
 _symmetry_equiv_pos_site_id
 _symmetry_equiv_pos_as_xyz
  1  'x, y, z'
loop_
 _atom_site_type_symbol
 _atom_site_label
 _atom_site_symmetry_multiplicity
 _atom_site_fract_x
 _atom_site_fract_y
 _atom_site_fract_z
 _atom_site_occupancy
  Na  Na0  1  0.239552  0.915062  0.376959  1
  Na  Na1  1  0.998243  0.751630  0.628610  1
  Na  Na2  1  0.501855  0.748861  0.125105  1
  Na  Na3  1  0.500383  0.249498  0.374431  1
  Li  Li4  1  0.254081  0.921493  0.871767  1
  Li  Li5  1  0.471154  0.726783  0.617293  1
  Li  Li6  1  0.027616  0.724653  0.111062  1
  Li  Li7  1  0.524105  0.264760  0.883245  1
  Li  Li8  1  0.974449  0.264882  0.883067  1
  Li  Li9  1  0.971770  0.274063  0.389012  1
  Li  Li10  1  0.743411  0.088084  0.630846  1
  Li  Li11  1  0.773810  0.090312  0.125256  1
  Mn  Mn12  1  0.753389  0.646163  0.886589  1
  Mn  Mn13  1  0.745254  0.639051  0.389891  1
  Mn  Mn14  1  0.243631  0.353455  0.615664  1
  Mn  Mn15  1  0.250539  0.351043  0.106237  1
  P  P16  1  0.256505  0.592865  0.851631  1
  P  P17  1  0.237286  0.583346  0.353717  1
  P  P18  1  0.742704  0.405830  0.649304  1
  P  P19  1  0.760384  0.406720  0.140972  1
  C  C20  1  0.749299  0.962260  0.866751  1
  C  C21  1  0.761212  0.956633  0.364218  1
  C  C22  1  0.259493  0.050838  0.643824  1
  C  C23  1  0.240408  0.041753  0.128248  1
  O  O24  1  0.282493  0.903732  0.662649  1
  O  O25  1  0.216977  0.895898  0.149137  1
  O  O26  1  0.747747  0.920358  0.988431  1
  O  O27  1  0.756503  0.920660  0.488487  1
  O  O28  1  0.753647  0.859013  0.771057  1
  O  O29  1  0.743397  0.848723  0.273239  1
  O  O30  1  0.072248  0.690074  0.896197  1
  O  O31  1  0.439367  0.686538  0.901826  1
  O  O32  1  0.058692  0.681114  0.404519  1
  O  O33  1  0.427444  0.672799  0.401003  1
  O  O34  1  0.263293  0.580733  0.697200  1
  O  O35  1  0.729067  0.573392  0.597388  1
  O  O36  1  0.233063  0.574012  0.199224  1
  O  O37  1  0.771631  0.574393  0.090116  1
  O  O38  1  0.250299  0.424857  0.902732  1
  O  O39  1  0.755057  0.418227  0.803818  1
  O  O40  1  0.230953  0.416487  0.405519  1
  O  O41  1  0.768804  0.417710  0.295293  1
  O  O42  1  0.561422  0.304869  0.607757  1
  O  O43  1  0.925918  0.315937  0.594324  1
  O  O44  1  0.568995  0.318876  0.095648  1
  O  O45  1  0.933556  0.303782  0.087046  1
  O  O46  1  0.240230  0.144074  0.745573  1
  O  O47  1  0.253884  0.139226  0.228243  1
  O  O48  1  0.254026  0.106051  0.526196  1
  O  O49  1  0.251280  0.092330  0.009003  1
  O  O50  1  0.746828  0.107685  0.836037  1
  O  O51  1  0.782643  0.098410  0.328643  1
