# generated using pymatgen
data_Li2Si3NiO8
_symmetry_space_group_name_H-M   'P 1'
_cell_length_a   7.93526243
_cell_length_b   7.93526243
_cell_length_c   7.93526243
_cell_angle_alpha   90.00000000
_cell_angle_beta   90.00000000
_cell_angle_gamma   90.00000000
_symmetry_Int_Tables_number   1
_chemical_formula_structural   Li2Si3NiO8
_chemical_formula_sum   'Li8 Si12 Ni4 O32'
_cell_volume   499.67069875
_cell_formula_units_Z   4
loop_
 _symmetry_equiv_pos_site_id
 _symmetry_equiv_pos_as_xyz
  1  'x, y, z'
loop_
 _atom_site_type_symbol
 _atom_site_label
 _atom_site_symmetry_multiplicity
 _atom_site_fract_x
 _atom_site_fract_y
 _atom_site_fract_z
 _atom_site_occupancy
  Li  Li0  1  0.007825  0.007825  0.007825  1
  Li  Li1  1  0.242175  0.242175  0.242175  1
  Li  Li2  1  0.257825  0.757825  0.742175  1
  Li  Li3  1  0.492175  0.992175  0.507825  1
  Li  Li4  1  0.507825  0.492175  0.992175  1
  Li  Li5  1  0.742175  0.257825  0.757825  1
  Li  Li6  1  0.757825  0.742175  0.257825  1
  Li  Li7  1  0.992175  0.507825  0.492175  1
  Si  Si8  1  0.114949  0.135051  0.625000  1
  Si  Si9  1  0.125000  0.385051  0.864949  1
  Si  Si10  1  0.135051  0.625000  0.114949  1
  Si  Si11  1  0.364949  0.375000  0.614949  1
  Si  Si12  1  0.375000  0.614949  0.364949  1
  Si  Si13  1  0.385051  0.864949  0.125000  1
  Si  Si14  1  0.614949  0.364949  0.375000  1
  Si  Si15  1  0.625000  0.114949  0.135051  1
  Si  Si16  1  0.635051  0.875000  0.885051  1
  Si  Si17  1  0.864949  0.125000  0.385051  1
  Si  Si18  1  0.875000  0.885051  0.635051  1
  Si  Si19  1  0.885051  0.635051  0.875000  1
  Ni  Ni20  1  0.125000  0.875000  0.375000  1
  Ni  Ni21  1  0.375000  0.125000  0.875000  1
  Ni  Ni22  1  0.625000  0.625000  0.625000  1
  Ni  Ni23  1  0.875000  0.375000  0.125000  1
  O  O24  1  0.087408  0.133847  0.398847  1
  O  O25  1  0.101153  0.912592  0.633847  1
  O  O26  1  0.118597  0.618597  0.881403  1
  O  O27  1  0.116153  0.162592  0.851153  1
  O  O28  1  0.133847  0.398847  0.087408  1
  O  O29  1  0.131403  0.368597  0.631403  1
  O  O30  1  0.148847  0.616153  0.337408  1
  O  O31  1  0.162592  0.851153  0.116153  1
  O  O32  1  0.337408  0.148847  0.616153  1
  O  O33  1  0.351153  0.383847  0.837408  1
  O  O34  1  0.368597  0.631403  0.131403  1
  O  O35  1  0.366153  0.601153  0.587408  1
  O  O36  1  0.383847  0.837408  0.351153  1
  O  O37  1  0.381403  0.381403  0.381403  1
  O  O38  1  0.398847  0.087408  0.133847  1
  O  O39  1  0.412592  0.866153  0.898847  1
  O  O40  1  0.587408  0.366153  0.601153  1
  O  O41  1  0.601153  0.587408  0.366153  1
  O  O42  1  0.618597  0.881403  0.118597  1
  O  O43  1  0.616153  0.337408  0.148847  1
  O  O44  1  0.633847  0.101153  0.912592  1
  O  O45  1  0.631403  0.131403  0.368597  1
  O  O46  1  0.648847  0.883847  0.662592  1
  O  O47  1  0.662592  0.648847  0.883847  1
  O  O48  1  0.837408  0.351153  0.383847  1
  O  O49  1  0.851153  0.116153  0.162592  1
  O  O50  1  0.868597  0.868597  0.868597  1
  O  O51  1  0.866153  0.898847  0.412592  1
  O  O52  1  0.883847  0.662592  0.648847  1
  O  O53  1  0.881403  0.118597  0.618597  1
  O  O54  1  0.898847  0.412592  0.866153  1
  O  O55  1  0.912592  0.633847  0.101153  1
