# generated using pymatgen
data_Mg2SnO4
_symmetry_space_group_name_H-M   'P 1'
_cell_length_a   3.09698001
_cell_length_b   5.23957767
_cell_length_c   9.61886213
_cell_angle_alpha   90.00000000
_cell_angle_beta   90.00000000
_cell_angle_gamma   90.00000000
_symmetry_Int_Tables_number   1
_chemical_formula_structural   Mg2SnO4
_chemical_formula_sum   'Mg4 Sn2 O8'
_cell_volume   156.08399941
_cell_formula_units_Z   2
loop_
 _symmetry_equiv_pos_site_id
 _symmetry_equiv_pos_as_xyz
  1  'x, y, z'
loop_
 _atom_site_type_symbol
 _atom_site_label
 _atom_site_symmetry_multiplicity
 _atom_site_fract_x
 _atom_site_fract_y
 _atom_site_fract_z
 _atom_site_occupancy
  Mg  Mg0  1  0.500000  0.052267  0.315454  1
  Mg  Mg1  1  0.500000  0.447733  0.815454  1
  Mg  Mg2  1  0.500000  0.552267  0.184546  1
  Mg  Mg3  1  0.500000  0.947733  0.684546  1
  Sn  Sn4  1  0.000000  0.000000  0.000000  1
  Sn  Sn5  1  0.000000  0.500000  0.500000  1
  O  O6  1  0.000000  0.168141  0.803609  1
  O  O7  1  0.500000  0.250865  0.050803  1
  O  O8  1  0.500000  0.249135  0.550803  1
  O  O9  1  0.000000  0.331859  0.303609  1
  O  O10  1  0.000000  0.668141  0.696391  1
  O  O11  1  0.500000  0.750865  0.449197  1
  O  O12  1  0.500000  0.749135  0.949197  1
  O  O13  1  0.000000  0.831859  0.196391  1
