# generated using pymatgen
data_Li2Mn3(BO3)3
_symmetry_space_group_name_H-M   'P 1'
_cell_length_a   5.86048002
_cell_length_b   8.23022281
_cell_length_c   9.09964943
_cell_angle_alpha   112.28643144
_cell_angle_beta   102.80889841
_cell_angle_gamma   102.07465040
_symmetry_Int_Tables_number   1
_chemical_formula_structural   Li2Mn3(BO3)3
_chemical_formula_sum   'Li4 Mn6 B6 O18'
_cell_volume   374.50985274
_cell_formula_units_Z   2
loop_
 _symmetry_equiv_pos_site_id
 _symmetry_equiv_pos_as_xyz
  1  'x, y, z'
loop_
 _atom_site_type_symbol
 _atom_site_label
 _atom_site_symmetry_multiplicity
 _atom_site_fract_x
 _atom_site_fract_y
 _atom_site_fract_z
 _atom_site_occupancy
  Li  Li0  1  0.949458  0.609180  0.267763  1
  Li  Li1  1  0.749744  0.052086  0.057269  1
  Li  Li2  1  0.050542  0.390820  0.732237  1
  Li  Li3  1  0.250256  0.947914  0.942731  1
  Mn  Mn4  1  0.856127  0.613913  0.615796  1
  Mn  Mn5  1  0.755925  0.999679  0.684449  1
  Mn  Mn6  1  0.143873  0.386087  0.384204  1
  Mn  Mn7  1  0.244075  0.000321  0.315551  1
  Mn  Mn8  1  0.559728  0.306035  0.930770  1
  Mn  Mn9  1  0.440272  0.693965  0.069230  1
  B  B10  1  0.789624  0.051788  0.393084  1
  B  B11  1  0.893222  0.648367  0.969101  1
  B  B12  1  0.106778  0.351633  0.030899  1
  B  B13  1  0.210376  0.948212  0.606916  1
  B  B14  1  0.431860  0.701286  0.731446  1
  B  B15  1  0.568140  0.298714  0.268554  1
  O  O16  1  0.826789  0.535068  0.800608  1
  O  O17  1  0.787838  0.446932  0.361290  1
  O  O18  1  0.754362  0.595037  0.060498  1
  O  O19  1  0.876105  0.140650  0.564803  1
  O  O20  1  0.939509  0.087041  0.299459  1
  O  O21  1  0.896605  0.194607  0.945316  1
  O  O22  1  0.212162  0.553068  0.638710  1
  O  O23  1  0.060491  0.912959  0.700541  1
  O  O24  1  0.173211  0.464932  0.199392  1
  O  O25  1  0.123895  0.859350  0.435197  1
  O  O26  1  0.245638  0.404963  0.939502  1
  O  O27  1  0.103395  0.805393  0.054684  1
  O  O28  1  0.450550  0.072093  0.696117  1
  O  O29  1  0.419938  0.257127  0.359713  1
  O  O30  1  0.503055  0.191281  0.099382  1
  O  O31  1  0.580062  0.742873  0.640287  1
  O  O32  1  0.549450  0.927907  0.303883  1
  O  O33  1  0.496945  0.808719  0.900618  1
