# generated using pymatgen
data_AgH8C4N8F
_symmetry_space_group_name_H-M   'P 1'
_cell_length_a   6.20828504
_cell_length_b   7.73430346
_cell_length_c   9.83865920
_cell_angle_alpha   93.03938081
_cell_angle_beta   97.80399135
_cell_angle_gamma   97.64989186
_symmetry_Int_Tables_number   1
_chemical_formula_structural   AgH8C4N8F
_chemical_formula_sum   'Ag2 H16 C8 N16 F2'
_cell_volume   462.66195683
_cell_formula_units_Z   2
loop_
 _symmetry_equiv_pos_site_id
 _symmetry_equiv_pos_as_xyz
  1  'x, y, z'
loop_
 _atom_site_type_symbol
 _atom_site_label
 _atom_site_symmetry_multiplicity
 _atom_site_fract_x
 _atom_site_fract_y
 _atom_site_fract_z
 _atom_site_occupancy
  Ag  Ag0  1  0.133399  0.358134  0.924821  1
  Ag  Ag1  1  0.866600  0.641866  0.075179  1
  H  H2  1  0.045031  0.272646  0.561965  1
  H  H3  1  0.110781  0.485117  0.630917  1
  H  H4  1  0.208965  0.860974  0.621435  1
  H  H5  1  0.081467  0.010169  0.303189  1
  H  H6  1  0.102358  0.995659  0.125961  1
  H  H7  1  0.363240  0.742577  0.736001  1
  H  H8  1  0.323611  0.112523  0.528936  1
  H  H9  1  0.403079  0.811660  0.404238  1
  H  H10  1  0.596921  0.188340  0.595762  1
  H  H11  1  0.676389  0.887477  0.471064  1
  H  H12  1  0.636760  0.257423  0.263999  1
  H  H13  1  0.897642  0.004341  0.874039  1
  H  H14  1  0.918533  0.989831  0.696811  1
  H  H15  1  0.791035  0.139026  0.378565  1
  H  H16  1  0.889219  0.514883  0.369083  1
  H  H17  1  0.954969  0.727354  0.438035  1
  C  C18  1  0.141319  0.871557  0.822703  1
  C  C19  1  0.390824  0.782102  0.987222  1
  C  C20  1  0.303013  0.520874  0.250559  1
  C  C21  1  0.371671  0.361662  0.618620  1
  C  C22  1  0.628329  0.638338  0.381380  1
  C  C23  1  0.696987  0.479126  0.749441  1
  C  C24  1  0.609176  0.217898  0.012778  1
  C  C25  1  0.858681  0.128443  0.177297  1
  N  N26  1  0.201984  0.836170  0.955593  1
  N  N27  1  0.250705  0.827198  0.720932  1
  N  N28  1  0.161036  0.383575  0.579968  1
  N  N29  1  0.034318  0.046924  0.205128  1
  N  N30  1  0.126755  0.529429  0.189985  1
  N  N31  1  0.438858  0.264665  0.977012  1
  N  N32  1  0.505568  0.499913  0.689529  1
  N  N33  1  0.434757  0.208966  0.586169  1
  N  N34  1  0.565243  0.791034  0.413831  1
  N  N35  1  0.494432  0.500087  0.310471  1
  N  N36  1  0.561142  0.735335  0.022988  1
  N  N37  1  0.873245  0.470571  0.810015  1
  N  N38  1  0.965682  0.953076  0.794872  1
  N  N39  1  0.838964  0.616425  0.420032  1
  N  N40  1  0.749295  0.172802  0.279068  1
  N  N41  1  0.798016  0.163830  0.044407  1
  F  F42  1  0.173301  0.904820  0.447479  1
  F  F43  1  0.826699  0.095180  0.552521  1
