# generated using pymatgen
data_V4OF11
_symmetry_space_group_name_H-M   'P 1'
_cell_length_a   5.24560188
_cell_length_b   5.45207285
_cell_length_c   17.44950892
_cell_angle_alpha   89.31001346
_cell_angle_beta   98.18716629
_cell_angle_gamma   118.29575449
_symmetry_Int_Tables_number   1
_chemical_formula_structural   V4OF11
_chemical_formula_sum   'V8 O2 F22'
_cell_volume   434.05580700
_cell_formula_units_Z   2
loop_
 _symmetry_equiv_pos_site_id
 _symmetry_equiv_pos_as_xyz
  1  'x, y, z'
loop_
 _atom_site_type_symbol
 _atom_site_label
 _atom_site_symmetry_multiplicity
 _atom_site_fract_x
 _atom_site_fract_y
 _atom_site_fract_z
 _atom_site_occupancy
  V  V0  1  0.755246  0.614540  0.368348  1
  V  V1  1  0.751885  0.121778  0.874272  1
  V  V2  1  0.500000  0.000000  0.500000  1
  V  V3  1  0.500000  0.500000  0.000000  1
  V  V4  1  0.244754  0.385460  0.631652  1
  V  V5  1  0.248115  0.878222  0.125728  1
  V  V6  1  0.995798  0.257073  0.251706  1
  V  V7  1  0.004202  0.742927  0.748294  1
  O  O8  1  0.828262  0.464365  0.296368  1
  O  O9  1  0.171738  0.535635  0.703632  1
  F  F10  1  0.326877  0.414108  0.338496  1
  F  F11  1  0.767500  0.932502  0.312758  1
  F  F12  1  0.773705  0.433264  0.812848  1
  F  F13  1  0.724316  0.319726  0.439979  1
  F  F14  1  0.327552  0.215739  0.542897  1
  F  F15  1  0.322782  0.907557  0.836945  1
  F  F16  1  0.322523  0.715467  0.036326  1
  F  F17  1  0.170087  0.843253  0.413196  1
  F  F18  1  0.179912  0.337745  0.911159  1
  F  F19  1  0.275684  0.680274  0.560021  1
  F  F20  1  0.730135  0.812156  0.936721  1
  F  F21  1  0.829913  0.156747  0.586804  1
  F  F22  1  0.826213  0.957482  0.785623  1
  F  F23  1  0.820088  0.662255  0.088841  1
  F  F24  1  0.173787  0.042518  0.214377  1
  F  F25  1  0.673123  0.585892  0.661504  1
  F  F26  1  0.672448  0.784261  0.457103  1
  F  F27  1  0.677477  0.284533  0.963674  1
  F  F28  1  0.269865  0.187844  0.063279  1
  F  F29  1  0.226295  0.566736  0.187152  1
  F  F30  1  0.232500  0.067498  0.687242  1
  F  F31  1  0.677218  0.092443  0.163055  1
