# generated using pymatgen
data_SrLa2O4
_symmetry_space_group_name_H-M   'P 1'
_cell_length_a   6.24234215
_cell_length_b   6.24234215
_cell_length_c   11.56174809
_cell_angle_alpha   90.00000000
_cell_angle_beta   90.00000000
_cell_angle_gamma   146.65723453
_symmetry_Int_Tables_number   1
_chemical_formula_structural   SrLa2O4
_chemical_formula_sum   'Sr2 La4 O8'
_cell_volume   247.62934906
_cell_formula_units_Z   2
loop_
 _symmetry_equiv_pos_site_id
 _symmetry_equiv_pos_as_xyz
  1  'x, y, z'
loop_
 _atom_site_type_symbol
 _atom_site_label
 _atom_site_symmetry_multiplicity
 _atom_site_fract_x
 _atom_site_fract_y
 _atom_site_fract_z
 _atom_site_occupancy
  Sr  Sr0  1  0.888532  0.111468  0.250000  1
  Sr  Sr1  1  0.111468  0.888532  0.750000  1
  La  La2  1  0.632057  0.367943  0.425462  1
  La  La3  1  0.632057  0.367943  0.074538  1
  La  La4  1  0.367943  0.632057  0.574538  1
  La  La5  1  0.367943  0.632057  0.925462  1
  O  O6  1  0.000000  0.000000  0.000000  1
  O  O7  1  0.000000  0.000000  0.500000  1
  O  O8  1  0.530213  0.469787  0.250000  1
  O  O9  1  0.734756  0.265244  0.610502  1
  O  O10  1  0.734756  0.265244  0.889498  1
  O  O11  1  0.469787  0.530213  0.750000  1
  O  O12  1  0.265244  0.734756  0.389498  1
  O  O13  1  0.265244  0.734756  0.110502  1
