# generated using pymatgen
data_LiTiV2O6
_symmetry_space_group_name_H-M   'P 1'
_cell_length_a   6.50745484
_cell_length_b   6.50745484
_cell_length_c   6.02386860
_cell_angle_alpha   76.93889569
_cell_angle_beta   103.06110431
_cell_angle_gamma   153.12380479
_symmetry_Int_Tables_number   1
_chemical_formula_structural   LiTiV2O6
_chemical_formula_sum   'Li1 Ti1 V2 O6'
_cell_volume   112.16216663
_cell_formula_units_Z   1
loop_
 _symmetry_equiv_pos_site_id
 _symmetry_equiv_pos_as_xyz
  1  'x, y, z'
loop_
 _atom_site_type_symbol
 _atom_site_label
 _atom_site_symmetry_multiplicity
 _atom_site_fract_x
 _atom_site_fract_y
 _atom_site_fract_z
 _atom_site_occupancy
  Li  Li0  1  0.665507  0.334493  0.832522  1
  Ti  Ti1  1  0.346003  0.653997  0.634558  1
  V  V2  1  0.987082  0.012918  0.025466  1
  V  V3  1  0.660972  0.339028  0.337161  1
  O  O4  1  0.493325  0.506675  0.795119  1
  O  O5  1  0.829513  0.170487  0.435647  1
  O  O6  1  0.144752  0.855248  0.094380  1
  O  O7  1  0.840039  0.159961  0.875791  1
  O  O8  1  0.182342  0.817658  0.573642  1
  O  O9  1  0.498406  0.501594  0.233693  1
