# generated using pymatgen
data_BaSn
_symmetry_space_group_name_H-M   'P 1'
_cell_length_a   6.93000108
_cell_length_b   6.93000108
_cell_length_c   4.72492605
_cell_angle_alpha   90.00000000
_cell_angle_beta   90.00000000
_cell_angle_gamma   134.37531910
_symmetry_Int_Tables_number   1
_chemical_formula_structural   BaSn
_chemical_formula_sum   'Ba2 Sn2'
_cell_volume   162.19235057
_cell_formula_units_Z   2
loop_
 _symmetry_equiv_pos_site_id
 _symmetry_equiv_pos_as_xyz
  1  'x, y, z'
loop_
 _atom_site_type_symbol
 _atom_site_label
 _atom_site_symmetry_multiplicity
 _atom_site_fract_x
 _atom_site_fract_y
 _atom_site_fract_z
 _atom_site_occupancy
  Ba  Ba0  1  0.135701  0.864299  0.250000  1
  Ba  Ba1  1  0.864299  0.135701  0.750000  1
  Sn  Sn2  1  0.427040  0.572960  0.250000  1
  Sn  Sn3  1  0.572960  0.427040  0.750000  1
