# generated using pymatgen
data_Sr(P3Pt2)2
_symmetry_space_group_name_H-M   'P 1'
_cell_length_a   5.80398617
_cell_length_b   5.80398617
_cell_length_c   11.55507914
_cell_angle_alpha   89.53743737
_cell_angle_beta   90.46256263
_cell_angle_gamma   91.98472924
_symmetry_Int_Tables_number   1
_chemical_formula_structural   Sr(P3Pt2)2
_chemical_formula_sum   'Sr2 P12 Pt8'
_cell_volume   388.98932921
_cell_formula_units_Z   2
loop_
 _symmetry_equiv_pos_site_id
 _symmetry_equiv_pos_as_xyz
  1  'x, y, z'
loop_
 _atom_site_type_symbol
 _atom_site_label
 _atom_site_symmetry_multiplicity
 _atom_site_fract_x
 _atom_site_fract_y
 _atom_site_fract_z
 _atom_site_occupancy
  Sr  Sr0  1  0.602892  0.602892  0.750000  1
  Sr  Sr1  1  0.397108  0.397108  0.250000  1
  P  P2  1  0.868711  0.087854  0.305208  1
  P  P3  1  0.087854  0.868711  0.194792  1
  P  P4  1  0.131289  0.912146  0.694792  1
  P  P5  1  0.912146  0.131289  0.805208  1
  P  P6  1  0.115281  0.615727  0.947394  1
  P  P7  1  0.615727  0.115281  0.552606  1
  P  P8  1  0.884719  0.384273  0.052606  1
  P  P9  1  0.384273  0.884719  0.447394  1
  P  P10  1  0.608675  0.883591  0.051044  1
  P  P11  1  0.883591  0.608675  0.448956  1
  P  P12  1  0.116409  0.391325  0.551044  1
  P  P13  1  0.391325  0.116409  0.948956  1
  Pt  Pt14  1  0.080907  0.507129  0.749858  1
  Pt  Pt15  1  0.507129  0.080907  0.750142  1
  Pt  Pt16  1  0.500000  0.500000  0.500000  1
  Pt  Pt17  1  0.500000  0.500000  0.000000  1
  Pt  Pt18  1  0.000000  0.000000  0.500000  1
  Pt  Pt19  1  0.000000  0.000000  0.000000  1
  Pt  Pt20  1  0.492871  0.919093  0.249858  1
  Pt  Pt21  1  0.919093  0.492871  0.250142  1
