# generated using pymatgen
data_SmB4
_symmetry_space_group_name_H-M   'P 1'
_cell_length_a   7.18655747
_cell_length_b   7.18655747
_cell_length_c   4.08152117
_cell_angle_alpha   90.00000000
_cell_angle_beta   90.00000000
_cell_angle_gamma   90.00000000
_symmetry_Int_Tables_number   1
_chemical_formula_structural   SmB4
_chemical_formula_sum   'Sm4 B16'
_cell_volume   210.79672501
_cell_formula_units_Z   4
loop_
 _symmetry_equiv_pos_site_id
 _symmetry_equiv_pos_as_xyz
  1  'x, y, z'
loop_
 _atom_site_type_symbol
 _atom_site_label
 _atom_site_symmetry_multiplicity
 _atom_site_fract_x
 _atom_site_fract_y
 _atom_site_fract_z
 _atom_site_occupancy
  Sm  Sm0  1  0.182797  0.682797  0.000000  1
  Sm  Sm1  1  0.682797  0.817203  0.000000  1
  Sm  Sm2  1  0.317203  0.182797  0.000000  1
  Sm  Sm3  1  0.817203  0.317203  0.000000  1
  B  B4  1  0.325061  0.461184  0.500000  1
  B  B5  1  0.674939  0.538816  0.500000  1
  B  B6  1  0.538816  0.325061  0.500000  1
  B  B7  1  0.461184  0.674939  0.500000  1
  B  B8  1  0.000000  0.000000  0.204089  1
  B  B9  1  0.500000  0.500000  0.795911  1
  B  B10  1  0.000000  0.000000  0.795911  1
  B  B11  1  0.500000  0.500000  0.204089  1
  B  B12  1  0.587639  0.087639  0.500000  1
  B  B13  1  0.087639  0.412361  0.500000  1
  B  B14  1  0.912361  0.587639  0.500000  1
  B  B15  1  0.412361  0.912361  0.500000  1
  B  B16  1  0.038816  0.174939  0.500000  1
  B  B17  1  0.174939  0.961184  0.500000  1
  B  B18  1  0.825061  0.038816  0.500000  1
  B  B19  1  0.961184  0.825061  0.500000  1
