# generated using pymatgen
data_ZnFe2(PO4)3
_symmetry_space_group_name_H-M   'P 1'
_cell_length_a   4.89371608
_cell_length_b   5.95641595
_cell_length_c   29.86220066
_cell_angle_alpha   90.00000000
_cell_angle_beta   90.01424294
_cell_angle_gamma   90.00000000
_symmetry_Int_Tables_number   1
_chemical_formula_structural   ZnFe2(PO4)3
_chemical_formula_sum   'Zn4 Fe8 P12 O48'
_cell_volume   870.45351513
_cell_formula_units_Z   4
loop_
 _symmetry_equiv_pos_site_id
 _symmetry_equiv_pos_as_xyz
  1  'x, y, z'
loop_
 _atom_site_type_symbol
 _atom_site_label
 _atom_site_symmetry_multiplicity
 _atom_site_fract_x
 _atom_site_fract_y
 _atom_site_fract_z
 _atom_site_occupancy
  Zn  Zn0  1  0.457267  0.000000  0.075090  1
  Zn  Zn1  1  0.957163  0.500000  0.091492  1
  Zn  Zn2  1  0.452319  0.000000  0.408244  1
  Zn  Zn3  1  0.452584  0.000000  0.741387  1
  Fe  Fe4  1  0.036718  0.000000  0.242124  1
  Fe  Fe5  1  0.535688  0.500000  0.258212  1
  Fe  Fe6  1  0.965875  0.500000  0.424738  1
  Fe  Fe7  1  0.032779  0.000000  0.574882  1
  Fe  Fe8  1  0.534145  0.500000  0.590919  1
  Fe  Fe9  1  0.966205  0.500000  0.757958  1
  Fe  Fe10  1  0.034642  0.000000  0.908062  1
  Fe  Fe11  1  0.536335  0.500000  0.924172  1
  P  P12  1  0.416428  0.500000  0.031148  1
  P  P13  1  0.916396  0.000000  0.135480  1
  P  P14  1  0.083190  0.500000  0.199216  1
  P  P15  1  0.582640  0.000000  0.301022  1
  P  P16  1  0.412188  0.500000  0.365878  1
  P  P17  1  0.925526  0.000000  0.467914  1
  P  P18  1  0.082330  0.500000  0.531910  1
  P  P19  1  0.582106  0.000000  0.634093  1
  P  P20  1  0.411433  0.500000  0.699075  1
  P  P21  1  0.925334  0.000000  0.801063  1
  P  P22  1  0.081875  0.500000  0.865256  1
  P  P23  1  0.582774  0.000000  0.967052  1
  O  O24  1  0.660182  0.000000  0.016799  1
  O  O25  1  0.728416  0.500000  0.036324  1
  O  O26  1  0.272486  0.297738  0.054911  1
  O  O27  1  0.272486  0.702262  0.054911  1
  O  O28  1  0.772095  0.797578  0.111795  1
  O  O29  1  0.772095  0.202422  0.111795  1
  O  O30  1  0.229285  0.000000  0.130445  1
  O  O31  1  0.162288  0.500000  0.149619  1
  O  O32  1  0.846849  0.000000  0.185770  1
  O  O33  1  0.774292  0.500000  0.206208  1
  O  O34  1  0.225985  0.299521  0.224990  1
  O  O35  1  0.225985  0.700479  0.224990  1
  O  O36  1  0.726266  0.798797  0.275599  1
  O  O37  1  0.726266  0.201203  0.275599  1
  O  O38  1  0.273498  0.000000  0.293659  1
  O  O39  1  0.352889  0.500000  0.315444  1
  O  O40  1  0.653587  0.000000  0.350713  1
  O  O41  1  0.719829  0.500000  0.373730  1
  O  O42  1  0.259802  0.301372  0.390249  1
  O  O43  1  0.259802  0.698628  0.390249  1
  O  O44  1  0.787163  0.204739  0.443724  1
  O  O45  1  0.787163  0.795261  0.443724  1
  O  O46  1  0.236903  0.000000  0.464217  1
  O  O47  1  0.156852  0.500000  0.482266  1
  O  O48  1  0.847143  0.000000  0.518011  1
  O  O49  1  0.772820  0.500000  0.538894  1
  O  O50  1  0.226372  0.298784  0.557188  1
  O  O51  1  0.226372  0.701216  0.557188  1
  O  O52  1  0.726229  0.798712  0.608576  1
  O  O53  1  0.726229  0.201288  0.608576  1
  O  O54  1  0.273140  0.000000  0.626299  1
  O  O55  1  0.352673  0.500000  0.648585  1
  O  O56  1  0.653251  0.000000  0.683746  1
  O  O57  1  0.719467  0.500000  0.706918  1
  O  O58  1  0.259828  0.301599  0.723427  1
  O  O59  1  0.259828  0.698401  0.723427  1
  O  O60  1  0.787370  0.204300  0.777040  1
  O  O61  1  0.787370  0.795700  0.777040  1
  O  O62  1  0.236715  0.000000  0.797477  1
  O  O63  1  0.155082  0.500000  0.815681  1
  O  O64  1  0.847279  0.000000  0.851237  1
  O  O65  1  0.772534  0.500000  0.872294  1
  O  O66  1  0.225709  0.298581  0.890432  1
  O  O67  1  0.225709  0.701419  0.890432  1
  O  O68  1  0.725607  0.799199  0.941434  1
  O  O69  1  0.725607  0.200801  0.941434  1
  O  O70  1  0.274095  0.000000  0.959739  1
  O  O71  1  0.347167  0.500000  0.980807  1
