# generated using pymatgen
data_Ni3OF5
_symmetry_space_group_name_H-M   'P 1'
_cell_length_a   5.62176267
_cell_length_b   5.62569892
_cell_length_c   7.32502019
_cell_angle_alpha   72.28285397
_cell_angle_beta   72.25820216
_cell_angle_gamma   72.36261204
_symmetry_Int_Tables_number   1
_chemical_formula_structural   Ni3OF5
_chemical_formula_sum   'Ni6 O2 F10'
_cell_volume   204.45842423
_cell_formula_units_Z   2
loop_
 _symmetry_equiv_pos_site_id
 _symmetry_equiv_pos_as_xyz
  1  'x, y, z'
loop_
 _atom_site_type_symbol
 _atom_site_label
 _atom_site_symmetry_multiplicity
 _atom_site_fract_x
 _atom_site_fract_y
 _atom_site_fract_z
 _atom_site_occupancy
  Ni  Ni0  1  0.333195  0.342665  0.162099  1
  Ni  Ni1  1  0.329395  0.332453  0.665304  1
  Ni  Ni2  1  0.672371  0.674928  0.335069  1
  Ni  Ni3  1  0.657064  0.667735  0.837529  1
  Ni  Ni4  1  0.995996  0.997556  0.494956  1
  Ni  Ni5  1  0.008947  0.987745  0.006271  1
  O  O6  1  0.902345  0.897916  0.296592  1
  O  O7  1  0.304843  0.694674  0.001027  1
  F  F8  1  0.363646  0.976800  0.330527  1
  F  F9  1  0.024774  0.636162  0.669955  1
  F  F10  1  0.098227  0.096930  0.702211  1
  F  F11  1  0.438216  0.439977  0.367359  1
  F  F12  1  0.767073  0.765490  0.035873  1
  F  F13  1  0.233296  0.232581  0.962785  1
  F  F14  1  0.562768  0.564738  0.632184  1
  F  F15  1  0.633981  0.030677  0.666394  1
  F  F16  1  0.970943  0.364955  0.334001  1
  F  F17  1  0.702922  0.296019  0.999863  1
