# generated using pymatgen
data_LiGe
_symmetry_space_group_name_H-M   'P 1'
_cell_length_a   12.02234332
_cell_length_b   12.02234332
_cell_length_c   12.02234332
_cell_angle_alpha   160.50954821
_cell_angle_beta   160.50954821
_cell_angle_gamma   27.69992770
_symmetry_Int_Tables_number   1
_chemical_formula_structural   LiGe
_chemical_formula_sum   'Li6 Ge6'
_cell_volume   193.35705172
_cell_formula_units_Z   6
loop_
 _symmetry_equiv_pos_site_id
 _symmetry_equiv_pos_as_xyz
  1  'x, y, z'
loop_
 _atom_site_type_symbol
 _atom_site_label
 _atom_site_symmetry_multiplicity
 _atom_site_fract_x
 _atom_site_fract_y
 _atom_site_fract_z
 _atom_site_occupancy
  Li  Li0  1  0.000000  0.000000  0.000000  1
  Li  Li1  1  0.750000  0.250000  0.500000  1
  Li  Li2  1  0.586899  0.086899  0.500000  1
  Li  Li3  1  0.836899  0.836899  0.000000  1
  Li  Li4  1  0.163101  0.163101  0.000000  1
  Li  Li5  1  0.913101  0.413101  0.500000  1
  Ge  Ge6  1  0.250000  0.750000  0.500000  1
  Ge  Ge7  1  0.500000  0.500000  0.000000  1
  Ge  Ge8  1  0.422697  0.922697  0.500000  1
  Ge  Ge9  1  0.672697  0.672697  0.000000  1
  Ge  Ge10  1  0.327303  0.327303  0.000000  1
  Ge  Ge11  1  0.077303  0.577303  0.500000  1
