# generated using pymatgen
data_Si2Mo
_symmetry_space_group_name_H-M   'P 1'
_cell_length_a   4.61647462
_cell_length_b   4.61647462
_cell_length_c   6.61749650
_cell_angle_alpha   90.00000000
_cell_angle_beta   90.00000000
_cell_angle_gamma   120.00000000
_symmetry_Int_Tables_number   1
_chemical_formula_structural   Si2Mo
_chemical_formula_sum   'Si6 Mo3'
_cell_volume   122.13643990
_cell_formula_units_Z   3
loop_
 _symmetry_equiv_pos_site_id
 _symmetry_equiv_pos_as_xyz
  1  'x, y, z'
loop_
 _atom_site_type_symbol
 _atom_site_label
 _atom_site_symmetry_multiplicity
 _atom_site_fract_x
 _atom_site_fract_y
 _atom_site_fract_z
 _atom_site_occupancy
  Si  Si0  1  0.163948  0.836052  0.833333  1
  Si  Si1  1  0.327897  0.163948  0.166667  1
  Si  Si2  1  0.836052  0.672103  0.500000  1
  Si  Si3  1  0.836052  0.163948  0.833333  1
  Si  Si4  1  0.672103  0.836052  0.166667  1
  Si  Si5  1  0.163948  0.327897  0.500000  1
  Mo  Mo6  1  0.500000  0.000000  0.500000  1
  Mo  Mo7  1  0.000000  0.500000  0.166667  1
  Mo  Mo8  1  0.500000  0.500000  0.833333  1
