# generated using pymatgen
data_Li3Mn4(BO3)4
_symmetry_space_group_name_H-M   'P 1'
_cell_length_a   6.17622508
_cell_length_b   9.35528054
_cell_length_c   9.66063635
_cell_angle_alpha   66.77133020
_cell_angle_beta   80.26679037
_cell_angle_gamma   83.23851493
_symmetry_Int_Tables_number   1
_chemical_formula_structural   Li3Mn4(BO3)4
_chemical_formula_sum   'Li6 Mn8 B8 O24'
_cell_volume   504.75880577
_cell_formula_units_Z   2
loop_
 _symmetry_equiv_pos_site_id
 _symmetry_equiv_pos_as_xyz
  1  'x, y, z'
loop_
 _atom_site_type_symbol
 _atom_site_label
 _atom_site_symmetry_multiplicity
 _atom_site_fract_x
 _atom_site_fract_y
 _atom_site_fract_z
 _atom_site_occupancy
  Li  Li0  1  0.536094  0.871575  0.781423  1
  Li  Li1  1  0.023036  0.349760  0.783408  1
  Li  Li2  1  0.463906  0.128425  0.218577  1
  Li  Li3  1  0.530889  0.370720  0.282637  1
  Li  Li4  1  0.976964  0.650240  0.216592  1
  Li  Li5  1  0.469111  0.629280  0.717363  1
  Mn  Mn6  1  0.252385  0.045490  0.952484  1
  Mn  Mn7  1  0.747615  0.954510  0.047516  1
  Mn  Mn8  1  0.238042  0.956002  0.555840  1
  Mn  Mn9  1  0.242800  0.452338  0.049837  1
  Mn  Mn10  1  0.761958  0.043998  0.444160  1
  Mn  Mn11  1  0.757200  0.547662  0.950163  1
  Mn  Mn12  1  0.253576  0.559280  0.449016  1
  Mn  Mn13  1  0.746424  0.440720  0.550984  1
  B  B14  1  0.101545  0.782387  0.891145  1
  B  B15  1  0.590374  0.783834  0.383550  1
  B  B16  1  0.580080  0.285214  0.883050  1
  B  B17  1  0.091700  0.288138  0.376567  1
  B  B18  1  0.898455  0.217613  0.108855  1
  B  B19  1  0.409626  0.216166  0.616450  1
  B  B20  1  0.419920  0.714786  0.116950  1
  B  B21  1  0.908300  0.711862  0.623433  1
  O  O22  1  0.256209  0.777682  0.771348  1
  O  O23  1  0.032254  0.920771  0.909835  1
  O  O24  1  0.497015  0.854434  0.995890  1
  O  O25  1  0.723682  0.775635  0.259011  1
  O  O26  1  0.520189  0.927992  0.397090  1
  O  O27  1  0.502985  0.145566  0.004110  1
  O  O28  1  0.012253  0.147588  0.483814  1
  O  O29  1  0.740534  0.277753  0.771166  1
  O  O30  1  0.259811  0.281446  0.264593  1
  O  O31  1  0.987747  0.852412  0.516186  1
  O  O32  1  0.967746  0.079229  0.090165  1
  O  O33  1  0.479811  0.072008  0.602910  1
  O  O34  1  0.501662  0.427544  0.892894  1
  O  O35  1  0.009773  0.430298  0.385150  1
  O  O36  1  0.017373  0.646304  0.003567  1
  O  O37  1  0.743791  0.222318  0.228652  1
  O  O38  1  0.276318  0.224365  0.740989  1
  O  O39  1  0.982627  0.353696  0.996433  1
  O  O40  1  0.478463  0.352437  0.494504  1
  O  O41  1  0.498338  0.572456  0.107106  1
  O  O42  1  0.259466  0.722247  0.228834  1
  O  O43  1  0.521537  0.647563  0.505496  1
  O  O44  1  0.990227  0.569702  0.614850  1
  O  O45  1  0.740189  0.718554  0.735407  1
