# generated using pymatgen
data_Li3Mn4(BO3)4
_symmetry_space_group_name_H-M   'P 1'
_cell_length_a   7.92521200
_cell_length_b   8.28649773
_cell_length_c   9.06395949
_cell_angle_alpha   111.98483419
_cell_angle_beta   114.00781924
_cell_angle_gamma   81.63193446
_symmetry_Int_Tables_number   1
_chemical_formula_structural   Li3Mn4(BO3)4
_chemical_formula_sum   'Li6 Mn8 B8 O24'
_cell_volume   504.19902193
_cell_formula_units_Z   2
loop_
 _symmetry_equiv_pos_site_id
 _symmetry_equiv_pos_as_xyz
  1  'x, y, z'
loop_
 _atom_site_type_symbol
 _atom_site_label
 _atom_site_symmetry_multiplicity
 _atom_site_fract_x
 _atom_site_fract_y
 _atom_site_fract_z
 _atom_site_occupancy
  Li  Li0  1  0.051824  0.625210  0.811192  1
  Li  Li1  1  0.288510  0.371903  0.300686  1
  Li  Li2  1  0.442724  0.872133  0.191834  1
  Li  Li3  1  0.538610  0.123604  0.796486  1
  Li  Li4  1  0.690522  0.619789  0.689609  1
  Li  Li5  1  0.803504  0.876199  0.307288  1
  Mn  Mn6  1  0.155486  0.086137  0.330266  1
  Mn  Mn7  1  0.084492  0.664757  0.177957  1
  Mn  Mn8  1  0.330759  0.417532  0.680701  1
  Mn  Mn9  1  0.590552  0.163803  0.176259  1
  Mn  Mn10  1  0.398916  0.840252  0.813697  1
  Mn  Mn11  1  0.668677  0.572088  0.313145  1
  Mn  Mn12  1  0.921819  0.322659  0.833128  1
  Mn  Mn13  1  0.841665  0.913009  0.672929  1
  B  B14  1  0.085307  0.655217  0.500523  1
  B  B15  1  0.337828  0.409651  0.005758  1
  B  B16  1  0.169724  0.086713  0.000596  1
  B  B17  1  0.583404  0.158866  0.507677  1
  B  B18  1  0.418167  0.833359  0.487359  1
  B  B19  1  0.829832  0.905275  0.001121  1
  B  B20  1  0.664001  0.598388  0.989972  1
  B  B21  1  0.919590  0.354130  0.506603  1
  O  O22  1  0.120821  0.176515  0.136904  1
  O  O23  1  0.094704  0.277692  0.530312  1
  O  O24  1  0.062854  0.093623  0.836587  1
  O  O25  1  0.160269  0.580063  0.380158  1
  O  O26  1  0.177191  0.645265  0.667210  1
  O  O27  1  0.433621  0.397573  0.169949  1
  O  O28  1  0.169993  0.499556  0.976095  1
  O  O29  1  0.422862  0.257460  0.482978  1
  O  O30  1  0.335245  0.990896  0.023463  1
  O  O31  1  0.309521  0.840886  0.321238  1
  O  O32  1  0.408680  0.333683  0.881139  1
  O  O33  1  0.635778  0.060482  0.372104  1
  O  O34  1  0.367543  0.928300  0.621555  1
  O  O35  1  0.610949  0.687955  0.126606  1
  O  O36  1  0.687613  0.150095  0.672744  1
  O  O37  1  0.665318  0.998741  0.970845  1
  O  O38  1  0.584503  0.740302  0.512678  1
  O  O39  1  0.836647  0.522790  0.013097  1
  O  O40  1  0.547844  0.594542  0.821277  1
  O  O41  1  0.806036  0.347552  0.341366  1
  O  O42  1  0.865815  0.437956  0.643688  1
  O  O43  1  0.929582  0.898458  0.167708  1
  O  O44  1  0.916549  0.743192  0.466802  1
  O  O45  1  0.886560  0.810374  0.868490  1
