# generated using pymatgen
data_Rb2SnAs2
_symmetry_space_group_name_H-M   'P 1'
_cell_length_a   8.79794772
_cell_length_b   8.79794772
_cell_length_c   8.79794772
_cell_angle_alpha   132.64578650
_cell_angle_beta   128.81417327
_cell_angle_gamma   72.28631677
_symmetry_Int_Tables_number   1
_chemical_formula_structural   Rb2SnAs2
_chemical_formula_sum   'Rb4 Sn2 As4'
_cell_volume   381.59548323
_cell_formula_units_Z   2
loop_
 _symmetry_equiv_pos_site_id
 _symmetry_equiv_pos_as_xyz
  1  'x, y, z'
loop_
 _atom_site_type_symbol
 _atom_site_label
 _atom_site_symmetry_multiplicity
 _atom_site_fract_x
 _atom_site_fract_y
 _atom_site_fract_z
 _atom_site_occupancy
  Rb  Rb0  1  0.015552  0.855529  0.160023  1
  Rb  Rb1  1  0.304494  0.644471  0.660023  1
  Rb  Rb2  1  0.984448  0.144471  0.839977  1
  Rb  Rb3  1  0.695506  0.355529  0.339977  1
  Sn  Sn4  1  0.500000  0.250000  0.750000  1
  Sn  Sn5  1  0.500000  0.750000  0.250000  1
  As  As6  1  0.216320  0.396542  0.819778  1
  As  As7  1  0.423236  0.103458  0.319778  1
  As  As8  1  0.783680  0.603458  0.180222  1
  As  As9  1  0.576764  0.896542  0.680222  1
