# generated using pymatgen
data_Y2S2O
_symmetry_space_group_name_H-M   'P 1'
_cell_length_a   6.90258594
_cell_length_b   6.92445770
_cell_length_c   8.31888287
_cell_angle_alpha   90.00000000
_cell_angle_beta   99.33676061
_cell_angle_gamma   90.00000000
_symmetry_Int_Tables_number   1
_chemical_formula_structural   Y2S2O
_chemical_formula_sum   'Y8 S8 O4'
_cell_volume   392.34718294
_cell_formula_units_Z   4
loop_
 _symmetry_equiv_pos_site_id
 _symmetry_equiv_pos_as_xyz
  1  'x, y, z'
loop_
 _atom_site_type_symbol
 _atom_site_label
 _atom_site_symmetry_multiplicity
 _atom_site_fract_x
 _atom_site_fract_y
 _atom_site_fract_z
 _atom_site_occupancy
  Y  Y0  1  0.249603  0.054507  0.138064  1
  Y  Y1  1  0.250397  0.554507  0.861936  1
  Y  Y2  1  0.750397  0.945493  0.861936  1
  Y  Y3  1  0.749603  0.445493  0.138064  1
  Y  Y4  1  0.321447  0.144037  0.576074  1
  Y  Y5  1  0.178553  0.644037  0.423926  1
  Y  Y6  1  0.678553  0.855963  0.423926  1
  Y  Y7  1  0.821447  0.355963  0.576074  1
  S  S8  1  0.030324  0.723389  0.075046  1
  S  S9  1  0.577244  0.633458  0.680420  1
  S  S10  1  0.422756  0.366542  0.319580  1
  S  S11  1  0.077244  0.866542  0.680420  1
  S  S12  1  0.469676  0.223389  0.924954  1
  S  S13  1  0.969676  0.276611  0.924954  1
  S  S14  1  0.530324  0.776611  0.075046  1
  S  S15  1  0.922756  0.133458  0.319580  1
  O  O16  1  0.649551  0.087393  0.617176  1
  O  O17  1  0.149551  0.412607  0.617176  1
  O  O18  1  0.350449  0.912607  0.382824  1
  O  O19  1  0.850449  0.587393  0.382824  1
