# generated using pymatgen
data_Mn15NiO32
_symmetry_space_group_name_H-M   'P 1'
_cell_length_a   8.23564621
_cell_length_b   8.23564621
_cell_length_c   8.23564621
_cell_angle_alpha   90.23833917
_cell_angle_beta   90.23833917
_cell_angle_gamma   90.23833917
_symmetry_Int_Tables_number   1
_chemical_formula_structural   Mn15NiO32
_chemical_formula_sum   'Mn15 Ni1 O32'
_cell_volume   558.57531815
_cell_formula_units_Z   1
loop_
 _symmetry_equiv_pos_site_id
 _symmetry_equiv_pos_as_xyz
  1  'x, y, z'
loop_
 _atom_site_type_symbol
 _atom_site_label
 _atom_site_symmetry_multiplicity
 _atom_site_fract_x
 _atom_site_fract_y
 _atom_site_fract_z
 _atom_site_occupancy
  Mn  Mn0  1  0.751208  0.751208  0.000569  1
  Mn  Mn1  1  0.500000  0.500000  0.000000  1
  Mn  Mn2  1  0.248792  0.248792  0.999431  1
  Mn  Mn3  1  0.750503  0.500000  0.249497  1
  Mn  Mn4  1  0.500000  0.750503  0.249497  1
  Mn  Mn5  1  0.999431  0.248792  0.248792  1
  Mn  Mn6  1  0.248792  0.999431  0.248792  1
  Mn  Mn7  1  0.000000  0.500000  0.500000  1
  Mn  Mn8  1  0.249497  0.750503  0.500000  1
  Mn  Mn9  1  0.750503  0.249497  0.500000  1
  Mn  Mn10  1  0.500000  0.000000  0.500000  1
  Mn  Mn11  1  0.000569  0.751208  0.751208  1
  Mn  Mn12  1  0.249497  0.500000  0.750503  1
  Mn  Mn13  1  0.751208  0.000569  0.751208  1
  Mn  Mn14  1  0.500000  0.249497  0.750503  1
  Ni  Ni15  1  0.000000  0.000000  0.000000  1
  O  O16  1  0.986118  0.768668  0.986118  1
  O  O17  1  0.768668  0.986118  0.986118  1
  O  O18  1  0.485006  0.263901  0.985750  1
  O  O19  1  0.263901  0.485006  0.985750  1
  O  O20  1  0.514994  0.736099  0.014250  1
  O  O21  1  0.736099  0.514994  0.014250  1
  O  O22  1  0.013882  0.231332  0.013882  1
  O  O23  1  0.231332  0.013882  0.013882  1
  O  O24  1  0.735764  0.735764  0.235758  1
  O  O25  1  0.514906  0.514906  0.234954  1
  O  O26  1  0.235170  0.235170  0.235170  1
  O  O27  1  0.013882  0.013882  0.231332  1
  O  O28  1  0.764242  0.264236  0.264236  1
  O  O29  1  0.985750  0.485006  0.263901  1
  O  O30  1  0.264236  0.764242  0.264236  1
  O  O31  1  0.485006  0.985750  0.263901  1
  O  O32  1  0.765046  0.485094  0.485094  1
  O  O33  1  0.985750  0.263901  0.485006  1
  O  O34  1  0.263901  0.985750  0.485006  1
  O  O35  1  0.485094  0.765046  0.485094  1
  O  O36  1  0.234954  0.514906  0.514906  1
  O  O37  1  0.014250  0.736099  0.514994  1
  O  O38  1  0.736099  0.014250  0.514994  1
  O  O39  1  0.514906  0.234954  0.514906  1
  O  O40  1  0.014250  0.514994  0.736099  1
  O  O41  1  0.235758  0.735764  0.735764  1
  O  O42  1  0.514994  0.014250  0.736099  1
  O  O43  1  0.735764  0.235758  0.735764  1
  O  O44  1  0.986118  0.986118  0.768668  1
  O  O45  1  0.764830  0.764830  0.764830  1
  O  O46  1  0.485094  0.485094  0.765046  1
  O  O47  1  0.264236  0.264236  0.764242  1
