# generated using pymatgen
data_Li3V3P8O29
_symmetry_space_group_name_H-M   'P 1'
_cell_length_a   9.78247979
_cell_length_b   9.78247979
_cell_length_c   13.97302090
_cell_angle_alpha   89.98762472
_cell_angle_beta   90.01237528
_cell_angle_gamma   120.11243881
_symmetry_Int_Tables_number   1
_chemical_formula_structural   Li3V3P8O29
_chemical_formula_sum   'Li6 V6 P16 O58'
_cell_volume   1156.71314370
_cell_formula_units_Z   2
loop_
 _symmetry_equiv_pos_site_id
 _symmetry_equiv_pos_as_xyz
  1  'x, y, z'
loop_
 _atom_site_type_symbol
 _atom_site_label
 _atom_site_symmetry_multiplicity
 _atom_site_fract_x
 _atom_site_fract_y
 _atom_site_fract_z
 _atom_site_occupancy
  Li  Li0  1  0.772842  0.094155  0.804969  1
  Li  Li1  1  0.772766  0.682735  0.311579  1
  Li  Li2  1  0.682735  0.772766  0.688421  1
  Li  Li3  1  0.312974  0.222126  0.803638  1
  Li  Li4  1  0.222126  0.312974  0.196362  1
  Li  Li5  1  0.094155  0.772842  0.195031  1
  V  V6  1  0.564862  0.564862  0.500000  1
  V  V7  1  0.435931  0.435931  0.000000  1
  V  V8  1  0.563888  0.996948  0.007649  1
  V  V9  1  0.431814  0.997678  0.497357  1
  V  V10  1  0.997678  0.431814  0.502643  1
  V  V11  1  0.996948  0.563888  0.992351  1
  P  P12  1  0.915916  0.232301  0.093309  1
  P  P13  1  0.768618  0.086300  0.590264  1
  P  P14  1  0.915472  0.687178  0.595247  1
  P  P15  1  0.667497  0.333940  0.378915  1
  P  P16  1  0.663383  0.328328  0.878263  1
  P  P17  1  0.773232  0.683686  0.092055  1
  P  P18  1  0.683686  0.773232  0.907945  1
  P  P19  1  0.312735  0.085079  0.093425  1
  P  P20  1  0.687178  0.915472  0.404753  1
  P  P21  1  0.316609  0.225978  0.590579  1
  P  P22  1  0.225978  0.316609  0.409421  1
  P  P23  1  0.333940  0.667497  0.621085  1
  P  P24  1  0.328328  0.663383  0.121737  1
  P  P25  1  0.085079  0.312735  0.906575  1
  P  P26  1  0.232301  0.915916  0.906691  1
  P  P27  1  0.086300  0.768618  0.409736  1
  O  O28  1  0.994253  0.233550  0.819911  1
  O  O29  1  0.913133  0.254992  0.586653  1
  O  O30  1  0.767938  0.999531  0.316605  1
  O  O31  1  0.744353  0.089557  0.084816  1
  O  O32  1  0.908568  0.384985  0.071342  1
  O  O33  1  0.815873  0.336737  0.425248  1
  O  O34  1  0.908052  0.526241  0.574500  1
  O  O35  1  0.000011  0.756354  0.318136  1
  O  O36  1  0.918902  0.661019  0.086553  1
  O  O37  1  0.668151  0.182545  0.920291  1
  O  O38  1  0.616823  0.094422  0.572894  1
  O  O39  1  0.812614  0.480382  0.923475  1
  O  O40  1  0.670905  0.343090  0.272610  1
  O  O41  1  0.663212  0.331218  0.772308  1
  O  O42  1  0.669870  0.488586  0.420254  1
  O  O43  1  0.476352  0.095602  0.074936  1
  O  O44  1  0.520164  0.185980  0.422763  1
  O  O45  1  0.743063  0.659808  0.588774  1
  O  O46  1  0.792461  0.792461  0.000000  1
  O  O47  1  0.750615  0.759172  0.816784  1
  O  O48  1  0.759172  0.750615  0.183216  1
  O  O49  1  0.619080  0.521366  0.069703  1
  O  O50  1  0.512323  0.329598  0.920696  1
  O  O51  1  0.659808  0.743063  0.411226  1
  O  O52  1  0.477807  0.381272  0.570286  1
  O  O53  1  0.343383  0.084143  0.582640  1
  O  O54  1  0.790018  0.994030  0.502246  1
  O  O55  1  0.756354  0.000011  0.681864  1
  O  O56  1  0.240473  0.004433  0.820007  1
  O  O57  1  0.661019  0.918902  0.913447  1
  O  O58  1  0.521366  0.619080  0.930297  1
  O  O59  1  0.338660  0.255855  0.089744  1
  O  O60  1  0.488586  0.669870  0.579746  1
  O  O61  1  0.381272  0.477807  0.429714  1
  O  O62  1  0.240363  0.248220  0.318333  1
  O  O63  1  0.248220  0.240363  0.681667  1
  O  O64  1  0.205782  0.205782  0.500000  1
  O  O65  1  0.255855  0.338660  0.910256  1
  O  O66  1  0.480382  0.812614  0.076525  1
  O  O67  1  0.526241  0.908052  0.425500  1
  O  O68  1  0.329598  0.512323  0.079304  1
  O  O69  1  0.331218  0.663212  0.227692  1
  O  O70  1  0.343090  0.670905  0.727390  1
  O  O71  1  0.185980  0.520164  0.577237  1
  O  O72  1  0.384985  0.908568  0.928658  1
  O  O73  1  0.336737  0.815873  0.574752  1
  O  O74  1  0.084143  0.343383  0.417360  1
  O  O75  1  0.002000  0.208289  0.000559  1
  O  O76  1  0.004433  0.240473  0.179993  1
  O  O77  1  0.095602  0.476352  0.925064  1
  O  O78  1  0.182545  0.668151  0.079709  1
  O  O79  1  0.094422  0.616823  0.427106  1
  O  O80  1  0.254992  0.913133  0.413347  1
  O  O81  1  0.233550  0.994253  0.180089  1
  O  O82  1  0.208289  0.002000  0.999441  1
  O  O83  1  0.089557  0.744353  0.915184  1
  O  O84  1  0.999531  0.767938  0.683395  1
  O  O85  1  0.994030  0.790018  0.497754  1
