# generated using pymatgen
data_Li4Mn3Co2Sb3O16
_symmetry_space_group_name_H-M   'P 1'
_cell_length_a   6.18074912
_cell_length_b   6.18074912
_cell_length_c   9.81489348
_cell_angle_alpha   89.30552799
_cell_angle_beta   90.69447201
_cell_angle_gamma   120.89664671
_symmetry_Int_Tables_number   1
_chemical_formula_structural   Li4Mn3Co2Sb3O16
_chemical_formula_sum   'Li4 Mn3 Co2 Sb3 O16'
_cell_volume   321.70737249
_cell_formula_units_Z   1
loop_
 _symmetry_equiv_pos_site_id
 _symmetry_equiv_pos_as_xyz
  1  'x, y, z'
loop_
 _atom_site_type_symbol
 _atom_site_label
 _atom_site_symmetry_multiplicity
 _atom_site_fract_x
 _atom_site_fract_y
 _atom_site_fract_z
 _atom_site_occupancy
  Li  Li0  1  0.662993  0.337007  0.875746  1
  Li  Li1  1  0.987259  0.012741  0.992715  1
  Li  Li2  1  0.995258  0.004742  0.506144  1
  Li  Li3  1  0.326567  0.673433  0.396725  1
  Mn  Mn4  1  0.831632  0.168368  0.216961  1
  Mn  Mn5  1  0.169189  0.336709  0.715074  1
  Mn  Mn6  1  0.663291  0.830811  0.715074  1
  Co  Co7  1  0.673027  0.326973  0.511530  1
  Co  Co8  1  0.343111  0.656889  0.981373  1
  Sb  Sb9  1  0.337956  0.168875  0.215211  1
  Sb  Sb10  1  0.831125  0.662044  0.215211  1
  Sb  Sb11  1  0.171914  0.828086  0.715063  1
  O  O12  1  0.320619  0.150912  0.601692  1
  O  O13  1  0.514001  0.485999  0.332161  1
  O  O14  1  0.653009  0.346991  0.096656  1
  O  O15  1  0.012303  0.987697  0.322482  1
  O  O16  1  0.010708  0.989292  0.814722  1
  O  O17  1  0.849088  0.679381  0.601692  1
  O  O18  1  0.511519  0.036581  0.329727  1
  O  O19  1  0.963419  0.488481  0.329727  1
  O  O20  1  0.154238  0.845762  0.101695  1
  O  O21  1  0.846505  0.153495  0.611338  1
  O  O22  1  0.035134  0.518964  0.836743  1
  O  O23  1  0.481036  0.964866  0.836743  1
  O  O24  1  0.325327  0.674673  0.599226  1
  O  O25  1  0.164083  0.312803  0.106322  1
  O  O26  1  0.478277  0.521723  0.823707  1
  O  O27  1  0.687197  0.835917  0.106322  1
