# generated using pymatgen
data_V4O5F7
_symmetry_space_group_name_H-M   'P 1'
_cell_length_a   5.24810990
_cell_length_b   5.38496864
_cell_length_c   7.48378529
_cell_angle_alpha   91.91191169
_cell_angle_beta   90.03637065
_cell_angle_gamma   91.07704852
_symmetry_Int_Tables_number   1
_chemical_formula_structural   V4O5F7
_chemical_formula_sum   'V4 O5 F7'
_cell_volume   211.34330617
_cell_formula_units_Z   1
loop_
 _symmetry_equiv_pos_site_id
 _symmetry_equiv_pos_as_xyz
  1  'x, y, z'
loop_
 _atom_site_type_symbol
 _atom_site_label
 _atom_site_symmetry_multiplicity
 _atom_site_fract_x
 _atom_site_fract_y
 _atom_site_fract_z
 _atom_site_occupancy
  V  V0  1  0.457285  0.474394  0.485733  1
  V  V1  1  0.525627  0.535771  0.007966  1
  V  V2  1  0.972380  0.965924  0.495522  1
  V  V3  1  0.035205  0.027864  0.993684  1
  O  O4  1  0.218419  0.280455  0.534715  1
  O  O5  1  0.285156  0.216019  0.962625  1
  O  O6  1  0.423678  0.504628  0.262245  1
  O  O7  1  0.718058  0.783773  0.036390  1
  O  O8  1  0.785907  0.715905  0.469673  1
  F  F9  1  0.099399  0.982834  0.250338  1
  F  F10  1  0.209479  0.710263  0.949323  1
  F  F11  1  0.290360  0.783699  0.552667  1
  F  F12  1  0.578269  0.492311  0.745109  1
  F  F13  1  0.713476  0.219517  0.450776  1
  F  F14  1  0.787844  0.286339  0.053388  1
  F  F15  1  0.899459  0.020303  0.749845  1
