# generated using pymatgen
data_Mn2OF3
_symmetry_space_group_name_H-M   'P 1'
_cell_length_a   4.88376347
_cell_length_b   4.88376347
_cell_length_c   15.91330812
_cell_angle_alpha   90.00000000
_cell_angle_beta   90.00000000
_cell_angle_gamma   93.32818351
_symmetry_Int_Tables_number   1
_chemical_formula_structural   Mn2OF3
_chemical_formula_sum   'Mn10 O5 F15'
_cell_volume   378.91047146
_cell_formula_units_Z   5
loop_
 _symmetry_equiv_pos_site_id
 _symmetry_equiv_pos_as_xyz
  1  'x, y, z'
loop_
 _atom_site_type_symbol
 _atom_site_label
 _atom_site_symmetry_multiplicity
 _atom_site_fract_x
 _atom_site_fract_y
 _atom_site_fract_z
 _atom_site_occupancy
  Mn  Mn0  1  0.014645  0.014645  0.399336  1
  Mn  Mn1  1  0.023384  0.023384  0.199330  1
  Mn  Mn2  1  0.964113  0.964113  1.000000  1
  Mn  Mn3  1  0.014645  0.014645  0.600664  1
  Mn  Mn4  1  0.023384  0.023384  0.800670  1
  Mn  Mn5  1  0.480215  0.480215  0.500000  1
  Mn  Mn6  1  0.494829  0.494829  0.099835  1
  Mn  Mn7  1  0.488223  0.488223  0.299637  1
  Mn  Mn8  1  0.494829  0.494829  0.900165  1
  Mn  Mn9  1  0.488223  0.488223  0.700363  1
  O  O10  1  0.320165  0.320165  0.197925  1
  O  O11  1  0.306696  0.306696  0.397706  1
  O  O12  1  0.306696  0.306696  0.602294  1
  O  O13  1  0.320165  0.320165  0.802075  1
  O  O14  1  0.665351  0.665351  1.000000  1
  F  F15  1  0.793059  0.196650  0.899791  1
  F  F16  1  0.793059  0.196650  0.100209  1
  F  F17  1  0.810920  0.200419  0.300299  1
  F  F18  1  0.808103  0.195185  0.500000  1
  F  F19  1  0.810920  0.200419  0.699701  1
  F  F20  1  0.280023  0.280023  1.000000  1
  F  F21  1  0.705738  0.705738  0.204124  1
  F  F22  1  0.698775  0.698775  0.399489  1
  F  F23  1  0.698775  0.698775  0.600511  1
  F  F24  1  0.705738  0.705738  0.795876  1
  F  F25  1  0.196650  0.793059  0.100209  1
  F  F26  1  0.200419  0.810920  0.300299  1
  F  F27  1  0.195185  0.808103  0.500000  1
  F  F28  1  0.196650  0.793059  0.899791  1
  F  F29  1  0.200419  0.810920  0.699701  1
