# generated using pymatgen
data_Ca2SnS4
_symmetry_space_group_name_H-M   'P 1'
_cell_length_a   7.17077548
_cell_length_b   11.78263558
_cell_length_c   16.80750867
_cell_angle_alpha   90.00000000
_cell_angle_beta   90.00000000
_cell_angle_gamma   90.00000000
_symmetry_Int_Tables_number   1
_chemical_formula_structural   Ca2SnS4
_chemical_formula_sum   'Ca16 Sn8 S32'
_cell_volume   1420.07706865
_cell_formula_units_Z   8
loop_
 _symmetry_equiv_pos_site_id
 _symmetry_equiv_pos_as_xyz
  1  'x, y, z'
loop_
 _atom_site_type_symbol
 _atom_site_label
 _atom_site_symmetry_multiplicity
 _atom_site_fract_x
 _atom_site_fract_y
 _atom_site_fract_z
 _atom_site_occupancy
  Ca  Ca0  1  0.771880  0.994839  0.123252  1
  Ca  Ca1  1  0.228120  0.494839  0.876748  1
  Ca  Ca2  1  0.271880  0.494839  0.376748  1
  Ca  Ca3  1  0.728120  0.994839  0.623252  1
  Ca  Ca4  1  0.807301  0.882616  0.380054  1
  Ca  Ca5  1  0.192699  0.382616  0.619946  1
  Ca  Ca6  1  0.307301  0.382616  0.119946  1
  Ca  Ca7  1  0.692699  0.882616  0.880054  1
  Ca  Ca8  1  0.818539  0.631416  0.188030  1
  Ca  Ca9  1  0.181461  0.131416  0.811970  1
  Ca  Ca10  1  0.318539  0.131416  0.311970  1
  Ca  Ca11  1  0.681461  0.631416  0.688030  1
  Ca  Ca12  1  0.790066  0.245156  0.449381  1
  Ca  Ca13  1  0.209934  0.745156  0.550619  1
  Ca  Ca14  1  0.290066  0.745156  0.050619  1
  Ca  Ca15  1  0.709934  0.245156  0.949381  1
  Sn  Sn16  1  0.719199  0.602798  0.471520  1
  Sn  Sn17  1  0.280801  0.102798  0.528480  1
  Sn  Sn18  1  0.219199  0.102798  0.028480  1
  Sn  Sn19  1  0.780801  0.602798  0.971520  1
  Sn  Sn20  1  0.811611  0.274560  0.236179  1
  Sn  Sn21  1  0.188389  0.774560  0.763821  1
  Sn  Sn22  1  0.311611  0.774560  0.263821  1
  Sn  Sn23  1  0.688389  0.274560  0.736179  1
  S  S24  1  0.525765  0.934860  0.259977  1
  S  S25  1  0.474235  0.434860  0.740023  1
  S  S26  1  0.025765  0.434860  0.240023  1
  S  S27  1  0.974235  0.934860  0.759977  1
  S  S28  1  0.546917  0.462126  0.982340  1
  S  S29  1  0.453083  0.962126  0.017660  1
  S  S30  1  0.046917  0.962126  0.517660  1
  S  S31  1  0.953083  0.462126  0.482340  1
  S  S32  1  0.545147  0.325580  0.322827  1
  S  S33  1  0.454853  0.825580  0.677173  1
  S  S34  1  0.045147  0.825580  0.177173  1
  S  S35  1  0.954853  0.325580  0.822827  1
  S  S36  1  0.569367  0.043375  0.466799  1
  S  S37  1  0.430633  0.543375  0.533201  1
  S  S38  1  0.069367  0.543375  0.033201  1
  S  S39  1  0.930633  0.043375  0.966799  1
  S  S40  1  0.641308  0.665727  0.340861  1
  S  S41  1  0.358692  0.165727  0.659139  1
  S  S42  1  0.141308  0.165727  0.159139  1
  S  S43  1  0.858692  0.665727  0.840861  1
  S  S44  1  0.638193  0.224954  0.118743  1
  S  S45  1  0.361807  0.724954  0.881257  1
  S  S46  1  0.138193  0.724954  0.381257  1
  S  S47  1  0.861807  0.224954  0.618743  1
  S  S48  1  0.694820  0.766810  0.047478  1
  S  S49  1  0.305180  0.266810  0.952522  1
  S  S50  1  0.194820  0.266810  0.452522  1
  S  S51  1  0.805180  0.766810  0.547478  1
  S  S52  1  0.912437  0.110984  0.317882  1
  S  S53  1  0.087563  0.610984  0.682118  1
  S  S54  1  0.412437  0.610984  0.182118  1
  S  S55  1  0.587563  0.110984  0.817882  1
