# generated using pymatgen
data_V3(O2F)2
_symmetry_space_group_name_H-M   'P 1'
_cell_length_a   5.61788214
_cell_length_b   5.61748266
_cell_length_c   7.11070834
_cell_angle_alpha   73.53311598
_cell_angle_beta   73.50294684
_cell_angle_gamma   76.08437380
_symmetry_Int_Tables_number   1
_chemical_formula_structural   V3(O2F)2
_chemical_formula_sum   'V6 O8 F4'
_cell_volume   203.19156337
_cell_formula_units_Z   2
loop_
 _symmetry_equiv_pos_site_id
 _symmetry_equiv_pos_as_xyz
  1  'x, y, z'
loop_
 _atom_site_type_symbol
 _atom_site_label
 _atom_site_symmetry_multiplicity
 _atom_site_fract_x
 _atom_site_fract_y
 _atom_site_fract_z
 _atom_site_occupancy
  V  V0  1  0.500000  0.500000  0.500000  1
  V  V1  1  0.209382  0.122624  0.334035  1
  V  V2  1  0.500000  0.500000  0.000000  1
  V  V3  1  0.173509  0.167681  0.829650  1
  V  V4  1  0.826491  0.832319  0.170350  1
  V  V5  1  0.790618  0.877376  0.665965  1
  O  O6  1  0.063857  0.066836  0.627544  1
  O  O7  1  0.395378  0.391924  0.300773  1
  O  O8  1  0.734411  0.737649  0.961400  1
  O  O9  1  0.936143  0.933164  0.372456  1
  O  O10  1  0.604622  0.608076  0.699227  1
  O  O11  1  0.265589  0.262351  0.038600  1
  O  O12  1  0.468179  0.862716  0.332992  1
  O  O13  1  0.531821  0.137284  0.667008  1
  F  F14  1  0.865261  0.466443  0.330688  1
  F  F15  1  0.193710  0.803229  0.002229  1
  F  F16  1  0.134739  0.533557  0.669312  1
  F  F17  1  0.806290  0.196771  0.997771  1
