# generated using pymatgen
data_NdAl
_symmetry_space_group_name_H-M   'P 1'
_cell_length_a   5.76357700
_cell_length_b   5.98892400
_cell_length_c   11.82854300
_cell_angle_alpha   90.00000000
_cell_angle_beta   90.00000000
_cell_angle_gamma   90.00000000
_symmetry_Int_Tables_number   1
_chemical_formula_structural   NdAl
_chemical_formula_sum   'Nd8 Al8'
_cell_volume   408.29320709
_cell_formula_units_Z   8
loop_
 _symmetry_equiv_pos_site_id
 _symmetry_equiv_pos_as_xyz
  1  'x, y, z'
loop_
 _atom_site_type_symbol
 _atom_site_label
 _atom_site_symmetry_multiplicity
 _atom_site_fract_x
 _atom_site_fract_y
 _atom_site_fract_z
 _atom_site_occupancy
  Nd  Nd0  1  0.750000  0.164003  0.010971  1
  Nd  Nd1  1  0.750000  0.404931  0.333587  1
  Nd  Nd2  1  0.750000  0.835997  0.510971  1
  Nd  Nd3  1  0.750000  0.595069  0.833587  1
  Nd  Nd4  1  0.250000  0.404931  0.166413  1
  Nd  Nd5  1  0.250000  0.164003  0.489029  1
  Nd  Nd6  1  0.250000  0.595069  0.666413  1
  Nd  Nd7  1  0.250000  0.835997  0.989029  1
  Al  Al8  1  0.500000  0.927906  0.250000  1
  Al  Al9  1  0.500000  0.072094  0.750000  1
  Al  Al10  1  0.750000  0.667120  0.101498  1
  Al  Al11  1  0.750000  0.332880  0.601498  1
  Al  Al12  1  0.000000  0.927906  0.250000  1
  Al  Al13  1  0.000000  0.072094  0.750000  1
  Al  Al14  1  0.250000  0.667120  0.398502  1
  Al  Al15  1  0.250000  0.332880  0.898502  1
