# generated using pymatgen
data_Li2MnPO5
_symmetry_space_group_name_H-M   'P 1'
_cell_length_a   12.87840999
_cell_length_b   5.08671331
_cell_length_c   13.18113406
_cell_angle_alpha   90.00000000
_cell_angle_beta   118.29795687
_cell_angle_gamma   90.00000000
_symmetry_Int_Tables_number   1
_chemical_formula_structural   Li2MnPO5
_chemical_formula_sum   'Li16 Mn8 P8 O40'
_cell_volume   760.28918619
_cell_formula_units_Z   8
loop_
 _symmetry_equiv_pos_site_id
 _symmetry_equiv_pos_as_xyz
  1  'x, y, z'
loop_
 _atom_site_type_symbol
 _atom_site_label
 _atom_site_symmetry_multiplicity
 _atom_site_fract_x
 _atom_site_fract_y
 _atom_site_fract_z
 _atom_site_occupancy
  Li  Li0  1  0.821677  0.725867  0.639282  1
  Li  Li1  1  0.339945  0.753721  0.915092  1
  Li  Li2  1  0.181718  0.210782  0.856962  1
  Li  Li3  1  0.585661  0.733406  0.419494  1
  Li  Li4  1  0.914339  0.233406  0.580506  1
  Li  Li5  1  0.318282  0.710782  0.143038  1
  Li  Li6  1  0.321677  0.774133  0.639282  1
  Li  Li7  1  0.839945  0.746279  0.915092  1
  Li  Li8  1  0.160055  0.253721  0.084908  1
  Li  Li9  1  0.678323  0.225867  0.360718  1
  Li  Li10  1  0.681718  0.289218  0.856962  1
  Li  Li11  1  0.085661  0.766594  0.419494  1
  Li  Li12  1  0.414339  0.266594  0.580506  1
  Li  Li13  1  0.818282  0.789218  0.143038  1
  Li  Li14  1  0.660055  0.246279  0.084908  1
  Li  Li15  1  0.178323  0.274133  0.360718  1
  Mn  Mn16  1  0.125704  0.724703  0.937766  1
  Mn  Mn17  1  0.686511  0.265487  0.564792  1
  Mn  Mn18  1  0.625704  0.775297  0.937766  1
  Mn  Mn19  1  0.813489  0.765487  0.435208  1
  Mn  Mn20  1  0.186511  0.234513  0.564792  1
  Mn  Mn21  1  0.374296  0.224703  0.062234  1
  Mn  Mn22  1  0.313489  0.734513  0.435208  1
  Mn  Mn23  1  0.874296  0.275297  0.062234  1
  P  P24  1  0.928057  0.230986  0.836832  1
  P  P25  1  0.412947  0.233367  0.335760  1
  P  P26  1  0.428057  0.269014  0.836832  1
  P  P27  1  0.087053  0.733367  0.664240  1
  P  P28  1  0.912947  0.266633  0.335760  1
  P  P29  1  0.571943  0.730986  0.163168  1
  P  P30  1  0.587053  0.766633  0.664240  1
  P  P31  1  0.071943  0.769014  0.163168  1
  O  O32  1  0.949176  0.931653  0.862851  1
  O  O33  1  0.221241  0.010634  0.007701  1
  O  O34  1  0.047892  0.373872  0.879085  1
  O  O35  1  0.653550  0.619146  0.609466  1
  O  O36  1  0.857025  0.281329  0.705040  1
  O  O37  1  0.360745  0.146504  0.897330  1
  O  O38  1  0.148341  0.807273  0.793751  1
  O  O39  1  0.407765  0.931984  0.355211  1
  O  O40  1  0.725317  0.978689  0.506400  1
  O  O41  1  0.449176  0.568347  0.862851  1
  O  O42  1  0.721241  0.489366  0.007701  1
  O  O43  1  0.543112  0.330273  0.393355  1
  O  O44  1  0.956888  0.830273  0.606645  1
  O  O45  1  0.547892  0.126128  0.879085  1
  O  O46  1  0.774683  0.478689  0.493600  1
  O  O47  1  0.092235  0.431984  0.644789  1
  O  O48  1  0.153550  0.880854  0.609466  1
  O  O49  1  0.357025  0.218671  0.705040  1
  O  O50  1  0.351659  0.307273  0.206249  1
  O  O51  1  0.139255  0.646504  0.102670  1
  O  O52  1  0.860745  0.353496  0.897330  1
  O  O53  1  0.648341  0.692727  0.793751  1
  O  O54  1  0.642975  0.781329  0.294960  1
  O  O55  1  0.846450  0.119146  0.390534  1
  O  O56  1  0.907765  0.568016  0.355211  1
  O  O57  1  0.225317  0.521311  0.506400  1
  O  O58  1  0.452108  0.873872  0.120915  1
  O  O59  1  0.043112  0.169727  0.393355  1
  O  O60  1  0.456888  0.669727  0.606645  1
  O  O61  1  0.278759  0.510634  0.992299  1
  O  O62  1  0.550824  0.431653  0.137149  1
  O  O63  1  0.274683  0.021311  0.493600  1
  O  O64  1  0.592235  0.068016  0.644789  1
  O  O65  1  0.851659  0.192727  0.206249  1
  O  O66  1  0.639255  0.853496  0.102670  1
  O  O67  1  0.142975  0.718671  0.294960  1
  O  O68  1  0.346450  0.380854  0.390534  1
  O  O69  1  0.952108  0.626128  0.120915  1
  O  O70  1  0.778759  0.989366  0.992299  1
  O  O71  1  0.050824  0.068347  0.137149  1
