# generated using pymatgen
data_Fe6O11F
_symmetry_space_group_name_H-M   'P 1'
_cell_length_a   4.63381794
_cell_length_b   5.50847965
_cell_length_c   7.55472779
_cell_angle_alpha   84.91090643
_cell_angle_beta   89.07644099
_cell_angle_gamma   88.78383877
_symmetry_Int_Tables_number   1
_chemical_formula_structural   Fe6O11F
_chemical_formula_sum   'Fe6 O11 F1'
_cell_volume   192.01357321
_cell_formula_units_Z   1
loop_
 _symmetry_equiv_pos_site_id
 _symmetry_equiv_pos_as_xyz
  1  'x, y, z'
loop_
 _atom_site_type_symbol
 _atom_site_label
 _atom_site_symmetry_multiplicity
 _atom_site_fract_x
 _atom_site_fract_y
 _atom_site_fract_z
 _atom_site_occupancy
  Fe  Fe0  1  0.517565  0.842909  0.672755  1
  Fe  Fe1  1  0.497514  0.498358  0.997930  1
  Fe  Fe2  1  0.498995  0.167990  0.334427  1
  Fe  Fe3  1  0.993789  0.323879  0.668514  1
  Fe  Fe4  1  0.986342  0.665662  0.323987  1
  Fe  Fe5  1  0.003640  0.000369  0.000906  1
  O  O6  1  0.811576  0.377800  0.437256  1
  O  O7  1  0.814941  0.030432  0.779416  1
  O  O8  1  0.803697  0.711222  0.094045  1
  O  O9  1  0.692238  0.208277  0.104179  1
  O  O10  1  0.688925  0.534044  0.767218  1
  O  O11  1  0.692192  0.873885  0.437097  1
  O  O12  1  0.310614  0.130428  0.564615  1
  O  O13  1  0.305939  0.463039  0.231055  1
  O  O14  1  0.307758  0.788682  0.895536  1
  O  O15  1  0.185267  0.960197  0.226385  1
  O  O16  1  0.191947  0.286848  0.899968  1
  F  F17  1  0.197061  0.635979  0.564710  1
