# generated using pymatgen
data_Li4Mn2Nb3Cr3O16
_symmetry_space_group_name_H-M   'P 1'
_cell_length_a   6.09296218
_cell_length_b   6.09296218
_cell_length_c   10.04940402
_cell_angle_alpha   89.87736223
_cell_angle_beta   90.12263777
_cell_angle_gamma   119.46428509
_symmetry_Int_Tables_number   1
_chemical_formula_structural   Li4Mn2Nb3Cr3O16
_chemical_formula_sum   'Li4 Mn2 Nb3 Cr3 O16'
_cell_volume   324.82224565
_cell_formula_units_Z   1
loop_
 _symmetry_equiv_pos_site_id
 _symmetry_equiv_pos_as_xyz
  1  'x, y, z'
loop_
 _atom_site_type_symbol
 _atom_site_label
 _atom_site_symmetry_multiplicity
 _atom_site_fract_x
 _atom_site_fract_y
 _atom_site_fract_z
 _atom_site_occupancy
  Li  Li0  1  0.333133  0.666867  0.096511  1
  Li  Li1  1  0.993081  0.006919  0.995584  1
  Li  Li2  1  0.990679  0.009321  0.508606  1
  Li  Li3  1  0.663603  0.336397  0.626592  1
  Mn  Mn4  1  0.343193  0.656807  0.518975  1
  Mn  Mn5  1  0.671232  0.328768  0.983811  1
  Nb  Nb6  1  0.171113  0.828887  0.783730  1
  Nb  Nb7  1  0.339855  0.165075  0.284661  1
  Nb  Nb8  1  0.834925  0.660145  0.284661  1
  Cr  Cr9  1  0.168097  0.335902  0.784944  1
  Cr  Cr10  1  0.664098  0.831903  0.784944  1
  Cr  Cr11  1  0.833259  0.166741  0.285006  1
  O  O12  1  0.158508  0.307111  0.391789  1
  O  O13  1  0.482235  0.517765  0.671457  1
  O  O14  1  0.331517  0.668483  0.895535  1
  O  O15  1  0.999782  0.000218  0.686992  1
  O  O16  1  0.000060  0.999940  0.182536  1
  O  O17  1  0.692889  0.841492  0.391789  1
  O  O18  1  0.028739  0.521437  0.668302  1
  O  O19  1  0.478563  0.971261  0.668302  1
  O  O20  1  0.844616  0.155384  0.891710  1
  O  O21  1  0.158249  0.841751  0.395168  1
  O  O22  1  0.509904  0.030834  0.173097  1
  O  O23  1  0.969166  0.490096  0.173097  1
  O  O24  1  0.666012  0.333988  0.395673  1
  O  O25  1  0.310108  0.150436  0.896406  1
  O  O26  1  0.513260  0.486740  0.175843  1
  O  O27  1  0.849564  0.689892  0.896406  1
