# generated using pymatgen
data_Li3V3P8O29
_symmetry_space_group_name_H-M   'P 1'
_cell_length_a   9.76396058
_cell_length_b   9.76396058
_cell_length_c   14.29960069
_cell_angle_alpha   89.43778583
_cell_angle_beta   90.56221417
_cell_angle_gamma   120.25958816
_symmetry_Int_Tables_number   1
_chemical_formula_structural   Li3V3P8O29
_chemical_formula_sum   'Li6 V6 P16 O58'
_cell_volume   1177.43461038
_cell_formula_units_Z   2
loop_
 _symmetry_equiv_pos_site_id
 _symmetry_equiv_pos_as_xyz
  1  'x, y, z'
loop_
 _atom_site_type_symbol
 _atom_site_label
 _atom_site_symmetry_multiplicity
 _atom_site_fract_x
 _atom_site_fract_y
 _atom_site_fract_z
 _atom_site_occupancy
  Li  Li0  1  0.768969  0.096076  0.192373  1
  Li  Li1  1  0.768199  0.681770  0.695627  1
  Li  Li2  1  0.681770  0.768199  0.304373  1
  Li  Li3  1  0.096076  0.768969  0.807627  1
  Li  Li4  1  0.072168  0.008260  0.257881  1
  Li  Li5  1  0.008260  0.072168  0.742119  1
  V  V6  1  0.431185  0.431185  0.000000  1
  V  V7  1  0.557801  0.557801  0.500000  1
  V  V8  1  0.999668  0.434642  0.495107  1
  V  V9  1  0.997039  0.559541  0.006105  1
  V  V10  1  0.559541  0.997039  0.993895  1
  V  V11  1  0.434642  0.999668  0.504893  1
  P  P12  1  0.770564  0.084857  0.409363  1
  P  P13  1  0.914311  0.225565  0.908184  1
  P  P14  1  0.302196  0.084423  0.909309  1
  P  P15  1  0.663117  0.328331  0.117843  1
  P  P16  1  0.671041  0.336365  0.616209  1
  P  P17  1  0.303369  0.216201  0.409868  1
  P  P18  1  0.216201  0.303369  0.590132  1
  P  P19  1  0.912893  0.696122  0.408265  1
  P  P20  1  0.084423  0.302196  0.090691  1
  P  P21  1  0.775648  0.685829  0.910606  1
  P  P22  1  0.685829  0.775648  0.089394  1
  P  P23  1  0.328331  0.663117  0.882157  1
  P  P24  1  0.336365  0.671041  0.383791  1
  P  P25  1  0.696122  0.912893  0.591735  1
  P  P26  1  0.084857  0.770564  0.590637  1
  P  P27  1  0.225565  0.914311  0.091816  1
  O  O28  1  0.801273  0.991248  0.672859  1
  O  O29  1  0.737755  0.091026  0.920145  1
  O  O30  1  0.995866  0.204942  0.173210  1
  O  O31  1  0.912757  0.256678  0.414495  1
  O  O32  1  0.616382  0.088098  0.426982  1
  O  O33  1  0.667866  0.182576  0.077739  1
  O  O34  1  0.461650  0.083668  0.921093  1
  O  O35  1  0.211070  0.986948  0.178034  1
  O  O36  1  0.346383  0.084018  0.422726  1
  O  O37  1  0.815114  0.337769  0.567207  1
  O  O38  1  0.920002  0.385215  0.923383  1
  O  O39  1  0.521384  0.187114  0.575542  1
  O  O40  1  0.672625  0.336098  0.221342  1
  O  O41  1  0.680098  0.351569  0.719433  1
  O  O42  1  0.518297  0.332439  0.072371  1
  O  O43  1  0.921255  0.541825  0.417905  1
  O  O44  1  0.813217  0.477591  0.070600  1
  O  O45  1  0.341140  0.258584  0.915201  1
  O  O46  1  0.198117  0.198117  0.500000  1
  O  O47  1  0.198930  0.212211  0.676388  1
  O  O48  1  0.212211  0.198930  0.323612  1
  O  O49  1  0.459859  0.379582  0.423077  1
  O  O50  1  0.670396  0.486635  0.571905  1
  O  O51  1  0.258584  0.341140  0.084799  1
  O  O52  1  0.617497  0.528399  0.926389  1
  O  O53  1  0.919142  0.657647  0.916648  1
  O  O54  1  0.002390  0.202092  0.997524  1
  O  O55  1  0.986948  0.211070  0.821966  1
  O  O56  1  0.003498  0.766864  0.680124  1
  O  O57  1  0.084018  0.346383  0.577274  1
  O  O58  1  0.379582  0.459859  0.576923  1
  O  O59  1  0.735188  0.653998  0.413232  1
  O  O60  1  0.332439  0.518297  0.927629  1
  O  O61  1  0.528399  0.617497  0.073611  1
  O  O62  1  0.765741  0.782040  0.179881  1
  O  O63  1  0.782040  0.765741  0.820119  1
  O  O64  1  0.795887  0.795887  0.000000  1
  O  O65  1  0.653998  0.735188  0.586768  1
  O  O66  1  0.187114  0.521384  0.424458  1
  O  O67  1  0.083668  0.461650  0.078907  1
  O  O68  1  0.486635  0.670396  0.428095  1
  O  O69  1  0.351569  0.680098  0.280567  1
  O  O70  1  0.336098  0.672625  0.778658  1
  O  O71  1  0.477591  0.813217  0.929400  1
  O  O72  1  0.088098  0.616382  0.573018  1
  O  O73  1  0.182576  0.667866  0.922261  1
  O  O74  1  0.657647  0.919142  0.083352  1
  O  O75  1  0.792443  0.989615  0.494745  1
  O  O76  1  0.766864  0.003498  0.319876  1
  O  O77  1  0.541825  0.921255  0.582095  1
  O  O78  1  0.337769  0.815114  0.432793  1
  O  O79  1  0.385215  0.920002  0.076617  1
  O  O80  1  0.091026  0.737755  0.079855  1
  O  O81  1  0.991248  0.801273  0.327141  1
  O  O82  1  0.989615  0.792443  0.505255  1
  O  O83  1  0.256678  0.912757  0.585505  1
  O  O84  1  0.204942  0.995866  0.826790  1
  O  O85  1  0.202092  0.002390  0.002476  1
