# generated using pymatgen
data_LiFe4(BO3)4
_symmetry_space_group_name_H-M   'P 1'
_cell_length_a   5.22650428
_cell_length_b   9.15915541
_cell_length_c   11.36660150
_cell_angle_alpha   113.71577481
_cell_angle_beta   102.55106618
_cell_angle_gamma   90.86847399
_symmetry_Int_Tables_number   1
_chemical_formula_structural   LiFe4(BO3)4
_chemical_formula_sum   'Li2 Fe8 B8 O24'
_cell_volume   483.05545733
_cell_formula_units_Z   2
loop_
 _symmetry_equiv_pos_site_id
 _symmetry_equiv_pos_as_xyz
  1  'x, y, z'
loop_
 _atom_site_type_symbol
 _atom_site_label
 _atom_site_symmetry_multiplicity
 _atom_site_fract_x
 _atom_site_fract_y
 _atom_site_fract_z
 _atom_site_occupancy
  Li  Li0  1  0.715269  0.272156  0.101392  1
  Li  Li1  1  0.516027  0.504449  0.346755  1
  Fe  Fe2  1  0.980742  0.353813  0.621355  1
  Fe  Fe3  1  0.740030  0.926031  0.123235  1
  Fe  Fe4  1  0.510890  0.148390  0.370485  1
  Fe  Fe5  1  0.762006  0.566962  0.870850  1
  Fe  Fe6  1  0.235623  0.448613  0.117056  1
  Fe  Fe7  1  0.470481  0.850781  0.621350  1
  Fe  Fe8  1  0.037229  0.660199  0.373859  1
  Fe  Fe9  1  0.265783  0.063840  0.871283  1
  B  B10  1  0.968863  0.684534  0.626743  1
  B  B11  1  0.737687  0.603498  0.126745  1
  B  B12  1  0.536675  0.813007  0.371968  1
  B  B13  1  0.765375  0.894074  0.871690  1
  B  B14  1  0.473090  0.187613  0.619488  1
  B  B15  1  0.232356  0.107029  0.119856  1
  B  B16  1  0.014326  0.318068  0.371867  1
  B  B17  1  0.266364  0.392674  0.873029  1
  O  O18  1  0.970700  0.096195  0.117818  1
  O  O19  1  0.894015  0.715128  0.156939  1
  O  O20  1  0.835833  0.509043  0.071530  1
  O  O21  1  0.849903  0.210152  0.348525  1
  O  O22  1  0.933546  0.422676  0.420816  1
  O  O23  1  0.750992  0.848611  0.313707  1
  O  O24  1  0.733896  0.669094  0.670521  1
  O  O25  1  0.500812  0.582075  0.156073  1
  O  O26  1  0.380717  0.207425  0.170309  1
  O  O27  1  0.532999  0.077760  0.569803  1
  O  O28  1  0.629508  0.306197  0.619534  1
  O  O29  1  0.364527  0.023989  0.068731  1
  O  O30  1  0.632983  0.977243  0.923048  1
  O  O31  1  0.411130  0.681296  0.380879  1
  O  O32  1  0.462354  0.919012  0.423087  1
  O  O33  1  0.623606  0.789014  0.825199  1
  O  O34  1  0.534376  0.397379  0.892524  1
  O  O35  1  0.261402  0.331320  0.341000  1
  O  O36  1  0.245232  0.170739  0.667269  1
  O  O37  1  0.034507  0.575626  0.580248  1
  O  O38  1  0.124411  0.804748  0.627189  1
  O  O39  1  0.126095  0.486040  0.911464  1
  O  O40  1  0.132315  0.287832  0.823959  1
  O  O41  1  0.019709  0.916348  0.866895  1
