# generated using pymatgen
data_Li4V5(FeO6)2
_symmetry_space_group_name_H-M   'P 1'
_cell_length_a   5.20542427
_cell_length_b   9.00639375
_cell_length_c   9.90617081
_cell_angle_alpha   90.00000000
_cell_angle_beta   100.35321700
_cell_angle_gamma   90.00000000
_symmetry_Int_Tables_number   1
_chemical_formula_structural   Li4V5(FeO6)2
_chemical_formula_sum   'Li8 V10 Fe4 O24'
_cell_volume   456.86062634
_cell_formula_units_Z   2
loop_
 _symmetry_equiv_pos_site_id
 _symmetry_equiv_pos_as_xyz
  1  'x, y, z'
loop_
 _atom_site_type_symbol
 _atom_site_label
 _atom_site_symmetry_multiplicity
 _atom_site_fract_x
 _atom_site_fract_y
 _atom_site_fract_z
 _atom_site_occupancy
  Li  Li0  1  0.011030  0.915589  0.258335  1
  Li  Li1  1  0.483718  0.919476  0.740455  1
  Li  Li2  1  0.758183  0.582204  0.496825  1
  Li  Li3  1  0.499350  0.583513  0.742729  1
  Li  Li4  1  0.988970  0.415589  0.741665  1
  Li  Li5  1  0.516282  0.419476  0.259545  1
  Li  Li6  1  0.241817  0.082204  0.503175  1
  Li  Li7  1  0.500650  0.083513  0.257271  1
  V  V8  1  0.253522  0.918786  0.997704  1
  V  V9  1  0.748913  0.927735  0.505147  1
  V  V10  1  0.988094  0.748791  0.744761  1
  V  V11  1  0.245476  0.573360  0.002274  1
  V  V12  1  0.513608  0.743796  0.257578  1
  V  V13  1  0.251087  0.427735  0.494853  1
  V  V14  1  0.746478  0.418786  0.002296  1
  V  V15  1  0.011906  0.248791  0.255239  1
  V  V16  1  0.486392  0.243796  0.742422  1
  V  V17  1  0.754524  0.073360  0.997726  1
  Fe  Fe18  1  0.238097  0.753322  0.494341  1
  Fe  Fe19  1  0.757388  0.743876  0.008782  1
  Fe  Fe20  1  0.242612  0.243876  0.991218  1
  Fe  Fe21  1  0.761903  0.253322  0.505659  1
  O  O22  1  0.112428  0.902561  0.615657  1
  O  O23  1  0.882904  0.907462  0.882492  1
  O  O24  1  0.153565  0.751555  0.117816  1
  O  O25  1  0.862323  0.770483  0.380301  1
  O  O26  1  0.387241  0.906349  0.379412  1
  O  O27  1  0.615878  0.914918  0.125233  1
  O  O28  1  0.635809  0.762255  0.628443  1
  O  O29  1  0.128819  0.598183  0.620495  1
  O  O30  1  0.882095  0.575673  0.879181  1
  O  O31  1  0.351602  0.745915  0.881039  1
  O  O32  1  0.887572  0.402561  0.384343  1
  O  O33  1  0.117096  0.407462  0.117508  1
  O  O34  1  0.600340  0.574838  0.120272  1
  O  O35  1  0.388007  0.595062  0.386361  1
  O  O36  1  0.137677  0.270483  0.619699  1
  O  O37  1  0.612759  0.406349  0.620588  1
  O  O38  1  0.384122  0.414918  0.874767  1
  O  O39  1  0.846435  0.251555  0.882184  1
  O  O40  1  0.648398  0.245915  0.118961  1
  O  O41  1  0.117905  0.075673  0.120819  1
  O  O42  1  0.871181  0.098183  0.379505  1
  O  O43  1  0.364191  0.262255  0.371557  1
  O  O44  1  0.611993  0.095062  0.613639  1
  O  O45  1  0.399660  0.074838  0.879728  1
