# generated using pymatgen
data_LiZr2Re
_symmetry_space_group_name_H-M   'P 1'
_cell_length_a   4.69841287
_cell_length_b   4.69841287
_cell_length_c   4.69841287
_cell_angle_alpha   60.00000000
_cell_angle_beta   60.00000000
_cell_angle_gamma   60.00000000
_symmetry_Int_Tables_number   1
_chemical_formula_structural   LiZr2Re
_chemical_formula_sum   'Li1 Zr2 Re1'
_cell_volume   73.33959952
_cell_formula_units_Z   1
loop_
 _symmetry_equiv_pos_site_id
 _symmetry_equiv_pos_as_xyz
  1  'x, y, z'
loop_
 _atom_site_type_symbol
 _atom_site_label
 _atom_site_symmetry_multiplicity
 _atom_site_fract_x
 _atom_site_fract_y
 _atom_site_fract_z
 _atom_site_occupancy
  Li  Li0  1  0.000000  1.000000  1.000000  1
  Zr  Zr1  1  0.250000  0.250000  0.250000  1
  Zr  Zr2  1  0.750000  0.750000  0.750000  1
  Re  Re3  1  0.500000  0.500000  0.500000  1
