# generated using pymatgen
data_Li5Fe5Si7O24
_symmetry_space_group_name_H-M   'P 1'
_cell_length_a   7.86660447
_cell_length_b   7.90733795
_cell_length_c   9.36778204
_cell_angle_alpha   90.37915826
_cell_angle_beta   90.94260718
_cell_angle_gamma   90.98888552
_symmetry_Int_Tables_number   1
_chemical_formula_structural   Li5Fe5Si7O24
_chemical_formula_sum   'Li5 Fe5 Si7 O24'
_cell_volume   582.53306576
_cell_formula_units_Z   1
loop_
 _symmetry_equiv_pos_site_id
 _symmetry_equiv_pos_as_xyz
  1  'x, y, z'
loop_
 _atom_site_type_symbol
 _atom_site_label
 _atom_site_symmetry_multiplicity
 _atom_site_fract_x
 _atom_site_fract_y
 _atom_site_fract_z
 _atom_site_occupancy
  Li  Li0  1  0.422482  0.293715  0.742554  1
  Li  Li1  1  0.519727  0.765315  0.242811  1
  Li  Li2  1  0.748986  0.544250  0.266423  1
  Li  Li3  1  0.775253  0.994789  0.997590  1
  Li  Li4  1  0.013570  0.257328  0.022237  1
  Fe  Fe5  1  0.382287  0.152680  0.996814  1
  Fe  Fe6  1  0.410333  0.594888  0.003746  1
  Fe  Fe7  1  0.573308  0.419558  0.504452  1
  Fe  Fe8  1  0.674010  0.124040  0.255062  1
  Fe  Fe9  1  0.844021  0.620366  0.989901  1
  Si  Si10  1  0.084272  0.070814  0.255522  1
  Si  Si11  1  0.128796  0.674870  0.263425  1
  Si  Si12  1  0.150698  0.372957  0.489415  1
  Si  Si13  1  0.318032  0.882597  0.740751  1
  Si  Si14  1  0.616181  0.836194  0.516640  1
  Si  Si15  1  0.872783  0.318094  0.738846  1
  Si  Si16  1  0.925910  0.921266  0.738728  1
  O  O17  1  0.013768  0.368600  0.619533  1
  O  O18  1  0.106324  0.875684  0.311301  1
  O  O19  1  0.125111  0.551791  0.404724  1
  O  O20  1  0.115979  0.881816  0.684954  1
  O  O21  1  0.110963  0.204785  0.389183  1
  O  O22  1  0.201657  0.127448  0.122610  1
  O  O23  1  0.307884  0.660114  0.181400  1
  O  O24  1  0.349446  0.735455  0.855409  1
  O  O25  1  0.344629  0.367108  0.553959  1
  O  O26  1  0.361742  0.069449  0.806419  1
  O  O27  1  0.377990  0.377011  0.934751  1
  O  O28  1  0.440467  0.853705  0.602969  1
  O  O29  1  0.574382  0.061227  0.079472  1
  O  O30  1  0.630401  0.644684  0.449446  1
  O  O31  1  0.602304  0.948703  0.372786  1
  O  O32  1  0.635592  0.634735  0.083828  1
  O  O33  1  0.655404  0.336787  0.333805  1
  O  O34  1  0.679731  0.340933  0.676332  1
  O  O35  1  0.786358  0.888014  0.611005  1
  O  O36  1  0.874402  0.819230  0.883245  1
  O  O37  1  0.896766  0.097033  0.177697  1
  O  O38  1  0.904746  0.420549  0.890183  1
  O  O39  1  0.906209  0.120819  0.795295  1
  O  O40  1  0.966538  0.607068  0.165922  1
