# generated using pymatgen
data_LiCo3(OF3)2
_symmetry_space_group_name_H-M   'P 1'
_cell_length_a   5.07747135
_cell_length_b   7.07296574
_cell_length_c   7.47719164
_cell_angle_alpha   78.96507795
_cell_angle_beta   89.58489853
_cell_angle_gamma   89.45185157
_symmetry_Int_Tables_number   1
_chemical_formula_structural   LiCo3(OF3)2
_chemical_formula_sum   'Li2 Co6 O4 F12'
_cell_volume   263.54580338
_cell_formula_units_Z   2
loop_
 _symmetry_equiv_pos_site_id
 _symmetry_equiv_pos_as_xyz
  1  'x, y, z'
loop_
 _atom_site_type_symbol
 _atom_site_label
 _atom_site_symmetry_multiplicity
 _atom_site_fract_x
 _atom_site_fract_y
 _atom_site_fract_z
 _atom_site_occupancy
  Li  Li0  1  0.234449  0.170149  0.153569  1
  Li  Li1  1  0.765551  0.829851  0.846431  1
  Co  Co2  1  0.283387  0.660885  0.183889  1
  Co  Co3  1  0.759690  0.831602  0.327070  1
  Co  Co4  1  0.256102  0.684991  0.683073  1
  Co  Co5  1  0.743898  0.315009  0.316927  1
  Co  Co6  1  0.240310  0.168398  0.672930  1
  Co  Co7  1  0.716613  0.339115  0.816111  1
  O  O8  1  0.592143  0.576024  0.298772  1
  O  O9  1  0.117588  0.927171  0.684191  1
  O  O10  1  0.882412  0.072829  0.315809  1
  O  O11  1  0.407857  0.423976  0.701228  1
  F  F12  1  0.425688  0.923278  0.191185  1
  F  F13  1  0.956299  0.800493  0.093129  1
  F  F14  1  0.091877  0.684242  0.430871  1
  F  F15  1  0.080594  0.425374  0.188961  1
  F  F16  1  0.580675  0.310624  0.070840  1
  F  F17  1  0.593716  0.794090  0.572839  1
  F  F18  1  0.406284  0.205910  0.427161  1
  F  F19  1  0.419325  0.689376  0.929160  1
  F  F20  1  0.919406  0.574626  0.811039  1
  F  F21  1  0.908123  0.315758  0.569129  1
  F  F22  1  0.043701  0.199507  0.906871  1
  F  F23  1  0.574312  0.076722  0.808815  1
