# generated using pymatgen
data_FeSi
_symmetry_space_group_name_H-M   'P 1'
_cell_length_a   4.44822136
_cell_length_b   4.44822136
_cell_length_c   4.44822136
_cell_angle_alpha   90.00000000
_cell_angle_beta   90.00000000
_cell_angle_gamma   90.00000000
_symmetry_Int_Tables_number   1
_chemical_formula_structural   FeSi
_chemical_formula_sum   'Fe4 Si4'
_cell_volume   88.01550267
_cell_formula_units_Z   4
loop_
 _symmetry_equiv_pos_site_id
 _symmetry_equiv_pos_as_xyz
  1  'x, y, z'
loop_
 _atom_site_type_symbol
 _atom_site_label
 _atom_site_symmetry_multiplicity
 _atom_site_fract_x
 _atom_site_fract_y
 _atom_site_fract_z
 _atom_site_occupancy
  Fe  Fe0  1  0.863684  0.636316  0.363684  1
  Fe  Fe1  1  0.636316  0.363684  0.863684  1
  Fe  Fe2  1  0.363684  0.863684  0.636316  1
  Fe  Fe3  1  0.136316  0.136316  0.136316  1
  Si  Si4  1  0.159187  0.340813  0.659187  1
  Si  Si5  1  0.340813  0.659187  0.159187  1
  Si  Si6  1  0.659187  0.159187  0.340813  1
  Si  Si7  1  0.840813  0.840813  0.840813  1
