# generated using pymatgen
data_W(SO4)2
_symmetry_space_group_name_H-M   'P 1'
_cell_length_a   9.23975755
_cell_length_b   9.39351696
_cell_length_c   13.79438256
_cell_angle_alpha   90.00000000
_cell_angle_beta   90.00000000
_cell_angle_gamma   90.00000000
_symmetry_Int_Tables_number   1
_chemical_formula_structural   W(SO4)2
_chemical_formula_sum   'W8 S16 O64'
_cell_volume   1197.26714661
_cell_formula_units_Z   8
loop_
 _symmetry_equiv_pos_site_id
 _symmetry_equiv_pos_as_xyz
  1  'x, y, z'
loop_
 _atom_site_type_symbol
 _atom_site_label
 _atom_site_symmetry_multiplicity
 _atom_site_fract_x
 _atom_site_fract_y
 _atom_site_fract_z
 _atom_site_occupancy
  W  W0  1  0.894952  0.858820  0.126649  1
  W  W1  1  0.605048  0.858820  0.626649  1
  W  W2  1  0.394952  0.641180  0.126649  1
  W  W3  1  0.105048  0.641180  0.626649  1
  W  W4  1  0.894952  0.358820  0.373351  1
  W  W5  1  0.605048  0.358820  0.873351  1
  W  W6  1  0.394952  0.141180  0.373351  1
  W  W7  1  0.105048  0.141180  0.873351  1
  S  S8  1  0.934020  0.925336  0.721296  1
  S  S9  1  0.565980  0.925336  0.221296  1
  S  S10  1  0.311755  0.843308  0.487091  1
  S  S11  1  0.188245  0.843308  0.987091  1
  S  S12  1  0.811755  0.656692  0.487091  1
  S  S13  1  0.688245  0.656692  0.987091  1
  S  S14  1  0.065980  0.574664  0.221296  1
  S  S15  1  0.434020  0.574664  0.721296  1
  S  S16  1  0.565980  0.425336  0.278704  1
  S  S17  1  0.934020  0.425336  0.778704  1
  S  S18  1  0.311755  0.343308  0.012909  1
  S  S19  1  0.188245  0.343308  0.512909  1
  S  S20  1  0.811755  0.156692  0.012909  1
  S  S21  1  0.688245  0.156692  0.512909  1
  S  S22  1  0.434020  0.074664  0.778704  1
  S  S23  1  0.065980  0.074664  0.278704  1
  O  O24  1  0.303578  0.004089  0.472816  1
  O  O25  1  0.196422  0.004089  0.972816  1
  O  O26  1  0.011715  0.985450  0.354207  1
  O  O27  1  0.488285  0.985450  0.854207  1
  O  O28  1  0.529715  0.972006  0.322293  1
  O  O29  1  0.970285  0.972006  0.822293  1
  O  O30  1  0.730962  0.913434  0.220874  1
  O  O31  1  0.769038  0.913434  0.720874  1
  O  O32  1  0.275384  0.818333  0.077567  1
  O  O33  1  0.224616  0.818333  0.577567  1
  O  O34  1  0.032236  0.809711  0.015155  1
  O  O35  1  0.467764  0.809711  0.515155  1
  O  O36  1  0.988096  0.771291  0.715976  1
  O  O37  1  0.511904  0.771291  0.215976  1
  O  O38  1  0.269218  0.763469  0.403956  1
  O  O39  1  0.230782  0.763469  0.903956  1
  O  O40  1  0.769218  0.736531  0.403956  1
  O  O41  1  0.730782  0.736531  0.903956  1
  O  O42  1  0.011904  0.728709  0.215976  1
  O  O43  1  0.488096  0.728709  0.715976  1
  O  O44  1  0.967764  0.690289  0.515155  1
  O  O45  1  0.532236  0.690289  0.015155  1
  O  O46  1  0.775384  0.681667  0.077567  1
  O  O47  1  0.724616  0.681667  0.577567  1
  O  O48  1  0.230962  0.586566  0.220874  1
  O  O49  1  0.269038  0.586566  0.720874  1
  O  O50  1  0.470285  0.527994  0.822293  1
  O  O51  1  0.029715  0.527994  0.322293  1
  O  O52  1  0.511715  0.514550  0.354207  1
  O  O53  1  0.988285  0.514550  0.854207  1
  O  O54  1  0.803578  0.495911  0.472816  1
  O  O55  1  0.696422  0.495911  0.972816  1
  O  O56  1  0.303578  0.504089  0.027184  1
  O  O57  1  0.196422  0.504089  0.527184  1
  O  O58  1  0.488285  0.485450  0.645793  1
  O  O59  1  0.011715  0.485450  0.145793  1
  O  O60  1  0.529715  0.472006  0.177707  1
  O  O61  1  0.970285  0.472006  0.677707  1
  O  O62  1  0.730962  0.413434  0.279126  1
  O  O63  1  0.769038  0.413434  0.779126  1
  O  O64  1  0.275384  0.318333  0.422433  1
  O  O65  1  0.224616  0.318333  0.922433  1
  O  O66  1  0.467764  0.309711  0.984845  1
  O  O67  1  0.032236  0.309711  0.484845  1
  O  O68  1  0.511904  0.271291  0.284024  1
  O  O69  1  0.988096  0.271291  0.784024  1
  O  O70  1  0.269218  0.263469  0.096044  1
  O  O71  1  0.230782  0.263469  0.596044  1
  O  O72  1  0.769218  0.236531  0.096044  1
  O  O73  1  0.730782  0.236531  0.596044  1
  O  O74  1  0.488096  0.228709  0.784024  1
  O  O75  1  0.011904  0.228709  0.284024  1
  O  O76  1  0.532236  0.190289  0.484845  1
  O  O77  1  0.967764  0.190289  0.984845  1
  O  O78  1  0.775384  0.181667  0.422433  1
  O  O79  1  0.724616  0.181667  0.922433  1
  O  O80  1  0.269038  0.086566  0.779126  1
  O  O81  1  0.230962  0.086566  0.279126  1
  O  O82  1  0.470285  0.027994  0.677707  1
  O  O83  1  0.029715  0.027994  0.177707  1
  O  O84  1  0.988285  0.014550  0.645793  1
  O  O85  1  0.511715  0.014550  0.145793  1
  O  O86  1  0.803578  0.995911  0.027184  1
  O  O87  1  0.696422  0.995911  0.527184  1
