# generated using pymatgen
data_VOF2
_symmetry_space_group_name_H-M   'P 1'
_cell_length_a   5.23707128
_cell_length_b   5.37944655
_cell_length_c   12.80873244
_cell_angle_alpha   90.80644905
_cell_angle_beta   91.29079644
_cell_angle_gamma   118.59912847
_symmetry_Int_Tables_number   1
_chemical_formula_structural   VOF2
_chemical_formula_sum   'V6 O6 F12'
_cell_volume   316.61937903
_cell_formula_units_Z   6
loop_
 _symmetry_equiv_pos_site_id
 _symmetry_equiv_pos_as_xyz
  1  'x, y, z'
loop_
 _atom_site_type_symbol
 _atom_site_label
 _atom_site_symmetry_multiplicity
 _atom_site_fract_x
 _atom_site_fract_y
 _atom_site_fract_z
 _atom_site_occupancy
  V  V0  1  0.168847  0.388981  0.335822  1
  V  V1  1  0.172840  0.309874  0.838338  1
  V  V2  1  0.500000  0.000000  0.500000  1
  V  V3  1  0.500000  0.000000  0.000000  1
  V  V4  1  0.827160  0.690126  0.161662  1
  V  V5  1  0.831153  0.611019  0.664178  1
  O  O6  1  0.303788  0.196643  0.937413  1
  O  O7  1  0.696212  0.803357  0.062587  1
  O  O8  1  0.021357  0.469403  0.720847  1
  O  O9  1  0.978643  0.530597  0.279153  1
  O  O10  1  0.405735  0.660607  0.415462  1
  O  O11  1  0.594265  0.339393  0.584538  1
  F  F12  1  0.568721  0.535940  0.777348  1
  F  F13  1  0.431279  0.464060  0.222652  1
  F  F14  1  0.090256  0.993291  0.743367  1
  F  F15  1  0.909744  0.006709  0.256633  1
  F  F16  1  0.910807  0.200948  0.445638  1
  F  F17  1  0.636477  0.852619  0.614597  1
  F  F18  1  0.768465  0.121290  0.881636  1
  F  F19  1  0.768260  0.343569  0.082078  1
  F  F20  1  0.231740  0.656431  0.917922  1
  F  F21  1  0.231535  0.878710  0.118364  1
  F  F22  1  0.363523  0.147381  0.385403  1
  F  F23  1  0.089193  0.799052  0.554362  1
