# generated using pymatgen
data_Fe3OF5
_symmetry_space_group_name_H-M   'P 1'
_cell_length_a   5.77716219
_cell_length_b   5.83141286
_cell_length_c   7.62469538
_cell_angle_alpha   72.48887275
_cell_angle_beta   71.33867473
_cell_angle_gamma   71.67102872
_symmetry_Int_Tables_number   1
_chemical_formula_structural   Fe3OF5
_chemical_formula_sum   'Fe6 O2 F10'
_cell_volume   225.21693578
_cell_formula_units_Z   2
loop_
 _symmetry_equiv_pos_site_id
 _symmetry_equiv_pos_as_xyz
  1  'x, y, z'
loop_
 _atom_site_type_symbol
 _atom_site_label
 _atom_site_symmetry_multiplicity
 _atom_site_fract_x
 _atom_site_fract_y
 _atom_site_fract_z
 _atom_site_occupancy
  Fe  Fe0  1  0.000000  0.000000  0.000000  1
  Fe  Fe1  1  0.359339  0.308138  0.166284  1
  Fe  Fe2  1  0.000000  0.000000  0.500000  1
  Fe  Fe3  1  0.329438  0.310106  0.679355  1
  Fe  Fe4  1  0.670562  0.689894  0.320645  1
  Fe  Fe5  1  0.640661  0.691862  0.833716  1
  O  O6  1  0.643610  0.009158  0.178097  1
  O  O7  1  0.356390  0.990842  0.821903  1
  F  F8  1  0.040019  0.608705  0.180177  1
  F  F9  1  0.685942  0.313113  0.499712  1
  F  F10  1  0.774170  0.755631  0.525792  1
  F  F11  1  0.421963  0.438083  0.858719  1
  F  F12  1  0.094848  0.098553  0.207035  1
  F  F13  1  0.905152  0.901447  0.792965  1
  F  F14  1  0.225830  0.244369  0.474208  1
  F  F15  1  0.578037  0.561917  0.141281  1
  F  F16  1  0.314058  0.686887  0.500288  1
  F  F17  1  0.959981  0.391295  0.819823  1
