# generated using pymatgen
data_CoOF
_symmetry_space_group_name_H-M   'P 1'
_cell_length_a   4.49173221
_cell_length_b   4.49173221
_cell_length_c   12.24612188
_cell_angle_alpha   89.92674961
_cell_angle_beta   90.07325039
_cell_angle_gamma   89.85206059
_symmetry_Int_Tables_number   1
_chemical_formula_structural   CoOF
_chemical_formula_sum   'Co8 O8 F8'
_cell_volume   247.07234156
_cell_formula_units_Z   8
loop_
 _symmetry_equiv_pos_site_id
 _symmetry_equiv_pos_as_xyz
  1  'x, y, z'
loop_
 _atom_site_type_symbol
 _atom_site_label
 _atom_site_symmetry_multiplicity
 _atom_site_fract_x
 _atom_site_fract_y
 _atom_site_fract_z
 _atom_site_occupancy
  Co  Co0  1  0.021725  0.967305  0.375146  1
  Co  Co1  1  0.967305  0.021725  0.624854  1
  Co  Co2  1  0.014112  0.957631  0.874565  1
  Co  Co3  1  0.957631  0.014112  0.125435  1
  Co  Co4  1  0.469489  0.469489  0.500000  1
  Co  Co5  1  0.517954  0.517954  0.000000  1
  Co  Co6  1  0.518083  0.521765  0.750128  1
  Co  Co7  1  0.521765  0.518083  0.249872  1
  O  O8  1  0.808848  0.808848  0.000000  1
  O  O9  1  0.813647  0.810310  0.749331  1
  O  O10  1  0.810310  0.813647  0.250669  1
  O  O11  1  0.673848  0.312217  0.624740  1
  O  O12  1  0.691546  0.326330  0.125434  1
  O  O13  1  0.312217  0.673848  0.375260  1
  O  O14  1  0.326330  0.691546  0.874566  1
  O  O15  1  0.175852  0.175852  0.500000  1
  F  F16  1  0.774224  0.774224  0.500000  1
  F  F17  1  0.715119  0.274057  0.374108  1
  F  F18  1  0.726300  0.284685  0.875324  1
  F  F19  1  0.274057  0.715119  0.625892  1
  F  F20  1  0.284685  0.726300  0.124676  1
  F  F21  1  0.203422  0.203422  0.000000  1
  F  F22  1  0.212390  0.209140  0.754259  1
  F  F23  1  0.209140  0.212390  0.245741  1
