# generated using pymatgen
data_Li5V3P8O29
_symmetry_space_group_name_H-M   'P 1'
_cell_length_a   9.80488495
_cell_length_b   9.80488495
_cell_length_c   13.91527931
_cell_angle_alpha   89.93020381
_cell_angle_beta   90.06979619
_cell_angle_gamma   119.91610622
_symmetry_Int_Tables_number   1
_chemical_formula_structural   Li5V3P8O29
_chemical_formula_sum   'Li10 V6 P16 O58'
_cell_volume   1159.50774256
_cell_formula_units_Z   2
loop_
 _symmetry_equiv_pos_site_id
 _symmetry_equiv_pos_as_xyz
  1  'x, y, z'
loop_
 _atom_site_type_symbol
 _atom_site_label
 _atom_site_symmetry_multiplicity
 _atom_site_fract_x
 _atom_site_fract_y
 _atom_site_fract_z
 _atom_site_occupancy
  Li  Li0  1  0.323338  0.096715  0.692958  1
  Li  Li1  1  0.771475  0.676788  0.691856  1
  Li  Li2  1  0.905063  0.675193  0.187382  1
  Li  Li3  1  0.773342  0.096471  0.187394  1
  Li  Li4  1  0.096471  0.773342  0.812606  1
  Li  Li5  1  0.910405  0.228061  0.690942  1
  Li  Li6  1  0.228061  0.910405  0.309058  1
  Li  Li7  1  0.096715  0.323338  0.307042  1
  Li  Li8  1  0.675193  0.905063  0.812618  1
  Li  Li9  1  0.676788  0.771475  0.308144  1
  V  V10  1  0.000225  0.566238  0.998027  1
  V  V11  1  0.000525  0.431709  0.500606  1
  V  V12  1  0.431709  0.000525  0.499394  1
  V  V13  1  0.566238  0.000225  0.001973  1
  V  V14  1  0.427137  0.427137  0.000000  1
  V  V15  1  0.562806  0.562806  0.500000  1
  P  P16  1  0.313990  0.229809  0.405709  1
  P  P17  1  0.318798  0.088205  0.908986  1
  P  P18  1  0.766719  0.680040  0.907572  1
  P  P19  1  0.667210  0.336135  0.122907  1
  P  P20  1  0.666367  0.332432  0.622925  1
  P  P21  1  0.910914  0.679583  0.407891  1
  P  P22  1  0.087724  0.768185  0.591912  1
  P  P23  1  0.768185  0.087724  0.408088  1
  P  P24  1  0.229677  0.911717  0.092810  1
  P  P25  1  0.911717  0.229677  0.907190  1
  P  P26  1  0.088205  0.318798  0.091014  1
  P  P27  1  0.336135  0.667210  0.877093  1
  P  P28  1  0.332432  0.666367  0.377075  1
  P  P29  1  0.229809  0.313990  0.594291  1
  P  P30  1  0.679583  0.910914  0.592109  1
  P  P31  1  0.680040  0.766719  0.092428  1
  O  O32  1  0.242678  0.235029  0.681128  1
  O  O33  1  0.338536  0.255037  0.913743  1
  O  O34  1  0.237180  0.992346  0.184170  1
  O  O35  1  0.336526  0.084524  0.408402  1
  O  O36  1  0.476748  0.381869  0.426812  1
  O  O37  1  0.519061  0.334710  0.075179  1
  O  O38  1  0.616628  0.521607  0.925505  1
  O  O39  1  0.759303  0.756250  0.182153  1
  O  O40  1  0.744546  0.663447  0.410248  1
  O  O41  1  0.512971  0.187976  0.582761  1
  O  O42  1  0.478243  0.099094  0.925014  1
  O  O43  1  0.671563  0.487946  0.579625  1
  O  O44  1  0.665643  0.336628  0.229924  1
  O  O45  1  0.668259  0.340097  0.730018  1
  O  O46  1  0.814681  0.489060  0.082885  1
  O  O47  1  0.618772  0.098308  0.425566  1
  O  O48  1  0.672530  0.187010  0.084142  1
  O  O49  1  0.915813  0.664501  0.906947  1
  O  O50  1  0.999520  0.790484  0.499914  1
  O  O51  1  0.999323  0.757994  0.682228  1
  O  O52  1  0.998115  0.759395  0.317601  1
  O  O53  1  0.899803  0.520337  0.425929  1
  O  O54  1  0.813136  0.326052  0.582564  1
  O  O55  1  0.082399  0.744009  0.087823  1
  O  O56  1  0.902206  0.380900  0.926512  1
  O  O57  1  0.744009  0.082399  0.912177  1
  O  O58  1  0.207707  0.998336  0.000207  1
  O  O59  1  0.239060  0.001107  0.818688  1
  O  O60  1  0.759395  0.998115  0.682399  1
  O  O61  1  0.253453  0.916887  0.590724  1
  O  O62  1  0.098308  0.618772  0.574434  1
  O  O63  1  0.916887  0.253453  0.409276  1
  O  O64  1  0.187010  0.672530  0.915858  1
  O  O65  1  0.099094  0.478243  0.074986  1
  O  O66  1  0.001107  0.239060  0.181312  1
  O  O67  1  0.992346  0.237180  0.815830  1
  O  O68  1  0.998336  0.207707  0.999793  1
  O  O69  1  0.084524  0.336526  0.591598  1
  O  O70  1  0.326052  0.813136  0.417436  1
  O  O71  1  0.380900  0.902206  0.073488  1
  O  O72  1  0.187976  0.512971  0.417239  1
  O  O73  1  0.340097  0.668259  0.269982  1
  O  O74  1  0.336628  0.665643  0.770076  1
  O  O75  1  0.334710  0.519061  0.924821  1
  O  O76  1  0.520337  0.899803  0.574071  1
  O  O77  1  0.489060  0.814681  0.917115  1
  O  O78  1  0.255037  0.338536  0.086257  1
  O  O79  1  0.208625  0.208625  0.500000  1
  O  O80  1  0.235029  0.242678  0.318872  1
  O  O81  1  0.381869  0.476748  0.573188  1
  O  O82  1  0.487946  0.671563  0.420375  1
  O  O83  1  0.521607  0.616628  0.074495  1
  O  O84  1  0.664501  0.915813  0.093053  1
  O  O85  1  0.757994  0.999323  0.317772  1
  O  O86  1  0.790484  0.999520  0.500086  1
  O  O87  1  0.663447  0.744546  0.589752  1
  O  O88  1  0.756250  0.759303  0.817847  1
  O  O89  1  0.790582  0.790582  0.000000  1
