# generated using pymatgen
data_Fe5O7F3
_symmetry_space_group_name_H-M   'P 1'
_cell_length_a   4.66629595
_cell_length_b   4.66629595
_cell_length_c   15.26319065
_cell_angle_alpha   89.92892772
_cell_angle_beta   90.07107228
_cell_angle_gamma   91.50179690
_symmetry_Int_Tables_number   1
_chemical_formula_structural   Fe5O7F3
_chemical_formula_sum   'Fe10 O14 F6'
_cell_volume   332.23090805
_cell_formula_units_Z   2
loop_
 _symmetry_equiv_pos_site_id
 _symmetry_equiv_pos_as_xyz
  1  'x, y, z'
loop_
 _atom_site_type_symbol
 _atom_site_label
 _atom_site_symmetry_multiplicity
 _atom_site_fract_x
 _atom_site_fract_y
 _atom_site_fract_z
 _atom_site_occupancy
  Fe  Fe0  1  0.032814  0.985363  0.293800  1
  Fe  Fe1  1  0.023706  0.981007  0.098889  1
  Fe  Fe2  1  0.981007  0.023706  0.901111  1
  Fe  Fe3  1  0.985363  0.032814  0.706200  1
  Fe  Fe4  1  0.014868  0.014868  0.500000  1
  Fe  Fe5  1  0.491020  0.519145  0.200836  1
  Fe  Fe6  1  0.519145  0.491020  0.799164  1
  Fe  Fe7  1  0.502100  0.502100  0.000000  1
  Fe  Fe8  1  0.487040  0.474815  0.595518  1
  Fe  Fe9  1  0.474815  0.487040  0.404482  1
  O  O10  1  0.208762  0.193009  0.195317  1
  O  O11  1  0.196742  0.196742  0.000000  1
  O  O12  1  0.193009  0.208762  0.804683  1
  O  O13  1  0.179001  0.190928  0.603870  1
  O  O14  1  0.190928  0.179001  0.396130  1
  O  O15  1  0.686879  0.321747  0.903774  1
  O  O16  1  0.681855  0.314212  0.697888  1
  O  O17  1  0.692315  0.294292  0.498030  1
  O  O18  1  0.314212  0.681855  0.302112  1
  O  O19  1  0.321747  0.686879  0.096226  1
  O  O20  1  0.294292  0.692315  0.501970  1
  O  O21  1  0.816525  0.801160  0.198071  1
  O  O22  1  0.801160  0.816525  0.801929  1
  O  O23  1  0.808851  0.808851  0.000000  1
  F  F24  1  0.703405  0.296248  0.300063  1
  F  F25  1  0.705639  0.300934  0.101522  1
  F  F26  1  0.300934  0.705639  0.898478  1
  F  F27  1  0.296248  0.703405  0.699937  1
  F  F28  1  0.801236  0.794383  0.397879  1
  F  F29  1  0.794383  0.801236  0.602121  1
