# generated using pymatgen
data_V2OF5
_symmetry_space_group_name_H-M   'P 1'
_cell_length_a   5.23182148
_cell_length_b   5.24992931
_cell_length_c   13.55057306
_cell_angle_alpha   89.36803060
_cell_angle_beta   89.67542892
_cell_angle_gamma   60.49725944
_symmetry_Int_Tables_number   1
_chemical_formula_structural   V2OF5
_chemical_formula_sum   'V6 O3 F15'
_cell_volume   323.90870708
_cell_formula_units_Z   3
loop_
 _symmetry_equiv_pos_site_id
 _symmetry_equiv_pos_as_xyz
  1  'x, y, z'
loop_
 _atom_site_type_symbol
 _atom_site_label
 _atom_site_symmetry_multiplicity
 _atom_site_fract_x
 _atom_site_fract_y
 _atom_site_fract_z
 _atom_site_occupancy
  V  V0  1  0.013203  0.003461  0.497606  1
  V  V1  1  0.986786  0.995215  0.001093  1
  V  V2  1  0.680701  0.667493  0.160929  1
  V  V3  1  0.334730  0.314591  0.338381  1
  V  V4  1  0.678313  0.665173  0.668676  1
  V  V5  1  0.306026  0.353718  0.827414  1
  O  O6  1  0.886622  0.751603  0.084092  1
  O  O7  1  0.018273  0.567399  0.753910  1
  O  O8  1  0.255407  0.104138  0.413933  1
  F  F9  1  0.421496  0.577133  0.249804  1
  F  F10  1  0.601372  0.989831  0.252912  1
  F  F11  1  0.744361  0.932434  0.581848  1
  F  F12  1  0.264547  0.663980  0.916731  1
  F  F13  1  0.076477  0.677771  0.410986  1
  F  F14  1  0.410897  0.990530  0.754101  1
  F  F15  1  0.602452  0.393775  0.750968  1
  F  F16  1  0.313019  0.927528  0.089901  1
  F  F17  1  0.667499  0.274772  0.415086  1
  F  F18  1  0.008089  0.399660  0.246285  1
  F  F19  1  0.342083  0.734437  0.583988  1
  F  F20  1  0.654864  0.082458  0.912459  1
  F  F21  1  0.938477  0.334803  0.583570  1
  F  F22  1  0.075114  0.260563  0.921325  1
  F  F23  1  0.719192  0.337534  0.084003  1
