# generated using pymatgen
data_Fe5P6WO24
_symmetry_space_group_name_H-M   'P 1'
_cell_length_a   8.58177664
_cell_length_b   8.58177664
_cell_length_c   8.58177664
_cell_angle_alpha   60.96771166
_cell_angle_beta   60.96771166
_cell_angle_gamma   60.96771166
_symmetry_Int_Tables_number   1
_chemical_formula_structural   Fe5P6WO24
_chemical_formula_sum   'Fe5 P6 W1 O24'
_cell_volume   456.65005769
_cell_formula_units_Z   1
loop_
 _symmetry_equiv_pos_site_id
 _symmetry_equiv_pos_as_xyz
  1  'x, y, z'
loop_
 _atom_site_type_symbol
 _atom_site_label
 _atom_site_symmetry_multiplicity
 _atom_site_fract_x
 _atom_site_fract_y
 _atom_site_fract_z
 _atom_site_occupancy
  Fe  Fe0  1  0.994554  0.994554  0.994554  1
  Fe  Fe1  1  0.643105  0.643105  0.643105  1
  Fe  Fe2  1  0.499374  0.499374  0.499374  1
  Fe  Fe3  1  0.855246  0.855246  0.855246  1
  Fe  Fe4  1  0.357096  0.357096  0.357096  1
  P  P5  1  0.955140  0.253804  0.547304  1
  P  P6  1  0.547304  0.955140  0.253804  1
  P  P7  1  0.253804  0.547304  0.955140  1
  P  P8  1  0.745301  0.461801  0.043328  1
  P  P9  1  0.461801  0.043328  0.745301  1
  P  P10  1  0.043328  0.745301  0.461801  1
  W  W11  1  0.142264  0.142264  0.142264  1
  O  O12  1  0.500644  0.111187  0.320611  1
  O  O13  1  0.320611  0.500644  0.111187  1
  O  O14  1  0.111187  0.320611  0.500644  1
  O  O15  1  0.941557  0.091002  0.738537  1
  O  O16  1  0.000302  0.180347  0.387924  1
  O  O17  1  0.761029  0.410093  0.552758  1
  O  O18  1  0.738537  0.941557  0.091002  1
  O  O19  1  0.552758  0.761029  0.410093  1
  O  O20  1  0.819233  0.611536  0.002652  1
  O  O21  1  0.410093  0.552758  0.761029  1
  O  O22  1  0.909343  0.259744  0.063954  1
  O  O23  1  0.611536  0.002652  0.819233  1
  O  O24  1  0.387924  0.000302  0.180347  1
  O  O25  1  0.091002  0.738537  0.941557  1
  O  O26  1  0.591139  0.440713  0.240050  1
  O  O27  1  0.180347  0.387924  0.000302  1
  O  O28  1  0.440713  0.240050  0.591139  1
  O  O29  1  0.259744  0.063954  0.909343  1
  O  O30  1  0.240050  0.591139  0.440713  1
  O  O31  1  0.002652  0.819233  0.611536  1
  O  O32  1  0.063954  0.909343  0.259744  1
  O  O33  1  0.885266  0.689096  0.492976  1
  O  O34  1  0.689096  0.492976  0.885266  1
  O  O35  1  0.492976  0.885266  0.689096  1
