# generated using pymatgen
data_Li3Mn4(BO3)4
_symmetry_space_group_name_H-M   'P 1'
_cell_length_a   6.17175368
_cell_length_b   7.92705095
_cell_length_c   10.47604668
_cell_angle_alpha   88.04722084
_cell_angle_beta   87.26612928
_cell_angle_gamma   80.25728322
_symmetry_Int_Tables_number   1
_chemical_formula_structural   Li3Mn4(BO3)4
_chemical_formula_sum   'Li6 Mn8 B8 O24'
_cell_volume   504.38519948
_cell_formula_units_Z   2
loop_
 _symmetry_equiv_pos_site_id
 _symmetry_equiv_pos_as_xyz
  1  'x, y, z'
loop_
 _atom_site_type_symbol
 _atom_site_label
 _atom_site_symmetry_multiplicity
 _atom_site_fract_x
 _atom_site_fract_y
 _atom_site_fract_z
 _atom_site_occupancy
  Li  Li0  1  0.534694  0.153056  0.957414  1
  Li  Li1  1  0.533074  0.152913  0.453619  1
  Li  Li2  1  0.020334  0.640216  0.717095  1
  Li  Li3  1  0.979666  0.359784  0.282905  1
  Li  Li4  1  0.466926  0.847087  0.546381  1
  Li  Li5  1  0.465306  0.846944  0.042586  1
  Mn  Mn6  1  0.746457  0.008887  0.701152  1
  Mn  Mn7  1  0.252328  0.497081  0.953366  1
  Mn  Mn8  1  0.772309  0.979144  0.200804  1
  Mn  Mn9  1  0.251803  0.508349  0.444325  1
  Mn  Mn10  1  0.748197  0.491651  0.555675  1
  Mn  Mn11  1  0.227691  0.020856  0.799196  1
  Mn  Mn12  1  0.747672  0.502919  0.046634  1
  Mn  Mn13  1  0.253543  0.991113  0.298848  1
  B  B14  1  0.094240  0.168825  0.542750  1
  B  B15  1  0.407223  0.339646  0.701469  1
  B  B16  1  0.100382  0.169692  0.055557  1
  B  B17  1  0.424535  0.324280  0.199976  1
  B  B18  1  0.575465  0.675720  0.800024  1
  B  B19  1  0.899618  0.830308  0.944443  1
  B  B20  1  0.592777  0.660354  0.298531  1
  B  B21  1  0.905760  0.831175  0.457250  1
  O  O22  1  0.254952  0.046994  0.996787  1
  O  O23  1  0.031998  0.328554  0.997804  1
  O  O24  1  0.012896  0.143198  0.666399  1
  O  O25  1  0.260794  0.048904  0.490611  1
  O  O26  1  0.477064  0.186260  0.771229  1
  O  O27  1  0.011346  0.319418  0.474828  1
  O  O28  1  0.017540  0.139965  0.179336  1
  O  O29  1  0.271462  0.473195  0.756522  1
  O  O30  1  0.479371  0.348326  0.572123  1
  O  O31  1  0.503955  0.167744  0.261301  1
  O  O32  1  0.502675  0.649732  0.929879  1
  O  O33  1  0.265644  0.441867  0.255475  1
  O  O34  1  0.734356  0.558133  0.744525  1
  O  O35  1  0.497325  0.350268  0.070121  1
  O  O36  1  0.496045  0.832256  0.738699  1
  O  O37  1  0.520629  0.651674  0.427877  1
  O  O38  1  0.728538  0.526805  0.243478  1
  O  O39  1  0.982460  0.860035  0.820664  1
  O  O40  1  0.988654  0.680582  0.525172  1
  O  O41  1  0.522936  0.813740  0.228771  1
  O  O42  1  0.739206  0.951096  0.509389  1
  O  O43  1  0.987104  0.856802  0.333601  1
  O  O44  1  0.968002  0.671446  0.002196  1
  O  O45  1  0.745048  0.953006  0.003213  1
