# generated using pymatgen
data_Li2Mn3(BO3)3
_symmetry_space_group_name_H-M   'P 1'
_cell_length_a   8.30294027
_cell_length_b   8.80610272
_cell_length_c   9.51408796
_cell_angle_alpha   110.28972306
_cell_angle_beta   90.40216836
_cell_angle_gamma   117.83748542
_symmetry_Int_Tables_number   1
_chemical_formula_structural   Li2Mn3(BO3)3
_chemical_formula_sum   'Li6 Mn9 B9 O27'
_cell_volume   564.87000587
_cell_formula_units_Z   3
loop_
 _symmetry_equiv_pos_site_id
 _symmetry_equiv_pos_as_xyz
  1  'x, y, z'
loop_
 _atom_site_type_symbol
 _atom_site_label
 _atom_site_symmetry_multiplicity
 _atom_site_fract_x
 _atom_site_fract_y
 _atom_site_fract_z
 _atom_site_occupancy
  Li  Li0  1  0.011694  0.717606  0.740263  1
  Li  Li1  1  0.024002  0.721140  0.411406  1
  Li  Li2  1  0.279864  0.306840  0.263704  1
  Li  Li3  1  0.282446  0.293411  0.601903  1
  Li  Li4  1  0.707447  0.980598  0.826340  1
  Li  Li5  1  0.698960  0.983044  0.154375  1
  Mn  Mn6  1  0.634965  0.634472  0.543123  1
  Mn  Mn7  1  0.620732  0.604919  0.874519  1
  Mn  Mn8  1  0.660635  0.652278  0.218195  1
  Mn  Mn9  1  0.353314  0.014607  0.002099  1
  Mn  Mn10  1  0.367780  0.008239  0.331843  1
  Mn  Mn11  1  0.392381  0.009779  0.667068  1
  Mn  Mn12  1  0.976580  0.342256  0.447349  1
  Mn  Mn13  1  0.993427  0.366685  0.118813  1
  Mn  Mn14  1  0.998919  0.357144  0.786055  1
  B  B15  1  0.011463  0.996554  0.669402  1
  B  B16  1  0.324770  0.665176  0.391983  1
  B  B17  1  0.332279  0.665590  0.720264  1
  B  B18  1  0.013174  0.013432  0.338457  1
  B  B19  1  0.341120  0.671914  0.050426  1
  B  B20  1  0.980743  0.988095  0.998784  1
  B  B21  1  0.667827  0.336413  0.624150  1
  B  B22  1  0.663769  0.337465  0.276847  1
  B  B23  1  0.662036  0.321308  0.930433  1
  O  O24  1  0.075488  0.893444  0.948228  1
  O  O25  1  0.090718  0.900991  0.318047  1
  O  O26  1  0.103924  0.893239  0.632310  1
  O  O27  1  0.134075  0.550320  0.350927  1
  O  O28  1  0.142559  0.561666  0.684028  1
  O  O29  1  0.156359  0.541769  0.009465  1
  O  O30  1  0.395698  0.858449  0.461913  1
  O  O31  1  0.408239  0.862725  0.114444  1
  O  O32  1  0.424819  0.860226  0.772188  1
  O  O33  1  0.078479  0.178920  0.084365  1
  O  O34  1  0.107209  0.187345  0.714513  1
  O  O35  1  0.129010  0.208146  0.403853  1
  O  O36  1  0.442657  0.592776  0.362097  1
  O  O37  1  0.440880  0.579702  0.706403  1
  O  O38  1  0.474069  0.614119  0.032231  1
  O  O39  1  0.785826  0.894443  0.964406  1
  O  O40  1  0.821608  0.904855  0.659556  1
  O  O41  1  0.823588  0.935808  0.296242  1
  O  O42  1  0.470150  0.226610  0.238418  1
  O  O43  1  0.474416  0.214325  0.584118  1
  O  O44  1  0.469869  0.197201  0.877313  1
  O  O45  1  0.724151  0.511482  0.994554  1
  O  O46  1  0.733262  0.530165  0.695754  1
  O  O47  1  0.746770  0.532176  0.348226  1
  O  O48  1  0.773420  0.254764  0.245806  1
  O  O49  1  0.788623  0.271594  0.595772  1
  O  O50  1  0.783743  0.253774  0.917021  1
