# generated using pymatgen
data_Mn8O13F3
_symmetry_space_group_name_H-M   'P 1'
_cell_length_a   4.51998968
_cell_length_b   5.00121104
_cell_length_c   11.07718352
_cell_angle_alpha   89.95180954
_cell_angle_beta   89.25791148
_cell_angle_gamma   89.66195475
_symmetry_Int_Tables_number   1
_chemical_formula_structural   Mn8O13F3
_chemical_formula_sum   'Mn8 O13 F3'
_cell_volume   250.37897758
_cell_formula_units_Z   1
loop_
 _symmetry_equiv_pos_site_id
 _symmetry_equiv_pos_as_xyz
  1  'x, y, z'
loop_
 _atom_site_type_symbol
 _atom_site_label
 _atom_site_symmetry_multiplicity
 _atom_site_fract_x
 _atom_site_fract_y
 _atom_site_fract_z
 _atom_site_occupancy
  Mn  Mn0  1  0.969388  0.244139  0.575809  1
  Mn  Mn1  1  0.989510  0.743378  0.918197  1
  Mn  Mn2  1  0.994702  0.762385  0.426011  1
  Mn  Mn3  1  0.999415  0.264210  0.075335  1
  Mn  Mn4  1  0.517962  0.738823  0.183069  1
  Mn  Mn5  1  0.503571  0.241116  0.834541  1
  Mn  Mn6  1  0.498075  0.761032  0.676074  1
  Mn  Mn7  1  0.514279  0.239476  0.316263  1
  O  O8  1  0.777968  0.075220  0.947808  1
  O  O9  1  0.761220  0.582548  0.553997  1
  O  O10  1  0.765226  0.083766  0.439458  1
  O  O11  1  0.771531  0.582197  0.057664  1
  O  O12  1  0.718097  0.573770  0.803291  1
  O  O13  1  0.713454  0.079331  0.697100  1
  O  O14  1  0.741504  0.572413  0.304585  1
  O  O15  1  0.743688  0.072879  0.194477  1
  O  O16  1  0.263266  0.922503  0.806446  1
  O  O17  1  0.277055  0.920362  0.305155  1
  O  O18  1  0.281176  0.421242  0.194398  1
  O  O19  1  0.228790  0.423967  0.944597  1
  O  O20  1  0.219081  0.928186  0.555452  1
  F  F21  1  0.254720  0.425421  0.689162  1
  F  F22  1  0.246404  0.420460  0.438873  1
  F  F23  1  0.249919  0.921174  0.062238  1
