# generated using pymatgen
data_V4CuNiO12
_symmetry_space_group_name_H-M   'P 1'
_cell_length_a   6.64024441
_cell_length_b   6.64024441
_cell_length_c   5.93376387
_cell_angle_alpha   75.92666441
_cell_angle_beta   104.07333559
_cell_angle_gamma   95.70988871
_symmetry_Int_Tables_number   1
_chemical_formula_structural   V4CuNiO12
_chemical_formula_sum   'V4 Cu1 Ni1 O12'
_cell_volume   245.93972428
_cell_formula_units_Z   1
loop_
 _symmetry_equiv_pos_site_id
 _symmetry_equiv_pos_as_xyz
  1  'x, y, z'
loop_
 _atom_site_type_symbol
 _atom_site_label
 _atom_site_symmetry_multiplicity
 _atom_site_fract_x
 _atom_site_fract_y
 _atom_site_fract_z
 _atom_site_occupancy
  V  V0  1  0.388969  0.796243  0.011752  1
  V  V1  1  0.211062  0.607912  0.519704  1
  V  V2  1  0.796243  0.388969  0.988248  1
  V  V3  1  0.607912  0.211062  0.480296  1
  Cu  Cu4  1  0.917149  0.917149  0.000000  1
  Ni  Ni5  1  0.080789  0.080789  0.500000  1
  O  O6  1  0.188612  0.969035  0.892163  1
  O  O7  1  0.627514  0.916882  0.028948  1
  O  O8  1  0.033853  0.794047  0.424051  1
  O  O9  1  0.362754  0.629738  0.811461  1
  O  O10  1  0.916882  0.627514  0.971052  1
  O  O11  1  0.367336  0.647859  0.300413  1
  O  O12  1  0.629738  0.362754  0.188539  1
  O  O13  1  0.086496  0.373752  0.537183  1
  O  O14  1  0.647859  0.367336  0.699587  1
  O  O15  1  0.969035  0.188612  0.107837  1
  O  O16  1  0.373752  0.086496  0.462817  1
  O  O17  1  0.794047  0.033853  0.575949  1
