# generated using pymatgen
data_LiCu2F6
_symmetry_space_group_name_H-M   'P 1'
_cell_length_a   5.62066380
_cell_length_b   4.58680000
_cell_length_c   15.50012401
_cell_angle_alpha   90.00000000
_cell_angle_beta   99.68474133
_cell_angle_gamma   90.00000000
_symmetry_Int_Tables_number   1
_chemical_formula_structural   LiCu2F6
_chemical_formula_sum   'Li4 Cu8 F24'
_cell_volume   393.91146785
_cell_formula_units_Z   4
loop_
 _symmetry_equiv_pos_site_id
 _symmetry_equiv_pos_as_xyz
  1  'x, y, z'
loop_
 _atom_site_type_symbol
 _atom_site_label
 _atom_site_symmetry_multiplicity
 _atom_site_fract_x
 _atom_site_fract_y
 _atom_site_fract_z
 _atom_site_occupancy
  Li  Li0  1  0.120988  0.507110  0.924063  1
  Li  Li1  1  0.120988  0.992890  0.424063  1
  Li  Li2  1  0.879012  0.007110  0.575937  1
  Li  Li3  1  0.879012  0.492890  0.075937  1
  Cu  Cu4  1  0.241588  0.014809  0.747943  1
  Cu  Cu5  1  0.382926  0.504833  0.582238  1
  Cu  Cu6  1  0.241588  0.485191  0.247943  1
  Cu  Cu7  1  0.617074  0.004833  0.917762  1
  Cu  Cu8  1  0.382926  0.995167  0.082238  1
  Cu  Cu9  1  0.758412  0.514809  0.752057  1
  Cu  Cu10  1  0.617074  0.495167  0.417762  1
  Cu  Cu11  1  0.758412  0.985191  0.252057  1
  F  F12  1  0.039065  0.280705  0.803472  1
  F  F13  1  0.177897  0.241009  0.639946  1
  F  F14  1  0.133853  0.754696  0.531264  1
  F  F15  1  0.039065  0.219295  0.303472  1
  F  F16  1  0.383428  0.230492  0.974224  1
  F  F17  1  0.334060  0.791004  0.857143  1
  F  F18  1  0.177897  0.258991  0.139946  1
  F  F19  1  0.133853  0.745304  0.031264  1
  F  F20  1  0.457282  0.738080  0.695698  1
  F  F21  1  0.383428  0.269508  0.474224  1
  F  F22  1  0.334060  0.708996  0.357143  1
  F  F23  1  0.542718  0.238080  0.804302  1
  F  F24  1  0.457282  0.761920  0.195698  1
  F  F25  1  0.665940  0.291004  0.642857  1
  F  F26  1  0.616572  0.730492  0.525776  1
  F  F27  1  0.542718  0.261920  0.304302  1
  F  F28  1  0.866147  0.254696  0.968736  1
  F  F29  1  0.822103  0.741009  0.860054  1
  F  F30  1  0.665940  0.208996  0.142857  1
  F  F31  1  0.616572  0.769508  0.025776  1
  F  F32  1  0.960935  0.780705  0.696528  1
  F  F33  1  0.866147  0.245304  0.468736  1
  F  F34  1  0.822103  0.758991  0.360054  1
  F  F35  1  0.960935  0.719295  0.196528  1
