# generated using pymatgen
data_NaCr4O12
_symmetry_space_group_name_H-M   'P 1'
_cell_length_a   16.06108299
_cell_length_b   16.06108299
_cell_length_c   16.06108299
_cell_angle_alpha   148.26256603
_cell_angle_beta   148.26256603
_cell_angle_gamma   45.49791444
_symmetry_Int_Tables_number   1
_chemical_formula_structural   NaCr4O12
_chemical_formula_sum   'Na4 Cr16 O48'
_cell_volume   1142.66422429
_cell_formula_units_Z   4
loop_
 _symmetry_equiv_pos_site_id
 _symmetry_equiv_pos_as_xyz
  1  'x, y, z'
loop_
 _atom_site_type_symbol
 _atom_site_label
 _atom_site_symmetry_multiplicity
 _atom_site_fract_x
 _atom_site_fract_y
 _atom_site_fract_z
 _atom_site_occupancy
  Na  Na0  1  1.000000  0.500000  0.500000  1
  Na  Na1  1  0.250000  0.250000  0.000000  1
  Na  Na2  1  0.500000  0.000000  0.500000  1
  Na  Na3  1  0.750000  0.750000  0.000000  1
  Cr  Cr4  1  0.969361  0.189943  0.506721  1
  Cr  Cr5  1  0.939943  0.933222  0.720582  1
  Cr  Cr6  1  0.037360  0.816778  0.506721  1
  Cr  Cr7  1  0.183222  0.689943  0.220582  1
  Cr  Cr8  1  0.066778  0.787360  0.006721  1
  Cr  Cr9  1  0.469361  0.962640  0.779418  1
  Cr  Cr10  1  0.310057  0.530639  0.493279  1
  Cr  Cr11  1  0.212640  0.219361  0.279418  1
  Cr  Cr12  1  0.537360  0.030639  0.220582  1
  Cr  Cr13  1  0.439943  0.719361  0.006721  1
  Cr  Cr14  1  0.280639  0.287360  0.720582  1
  Cr  Cr15  1  0.683222  0.462640  0.493279  1
  Cr  Cr16  1  0.566778  0.560057  0.279418  1
  Cr  Cr17  1  0.712640  0.433222  0.993279  1
  Cr  Cr18  1  0.810057  0.316778  0.779418  1
  Cr  Cr19  1  0.780639  0.060057  0.993279  1
  O  O20  1  0.900414  0.753182  0.269636  1
  O  O21  1  0.032230  0.719280  0.176160  1
  O  O22  1  0.125000  0.195447  0.570447  1
  O  O23  1  0.043120  0.219280  0.687050  1
  O  O24  1  0.983547  0.253182  0.852768  1
  O  O25  1  0.945447  0.875000  0.570447  1
  O  O26  1  0.143930  0.967770  0.687050  1
  O  O27  1  0.969280  0.782230  0.676160  1
  O  O28  1  0.246818  0.516453  0.147232  1
  O  O29  1  0.880779  0.233547  0.230364  1
  O  O30  1  0.161135  0.661135  0.500000  1
  O  O31  1  0.911135  0.911135  0.000000  1
  O  O32  1  0.088865  0.088865  0.000000  1
  O  O33  1  0.338865  0.838865  0.500000  1
  O  O34  1  0.003182  0.650414  0.769636  1
  O  O35  1  0.369221  0.099586  0.852768  1
  O  O36  1  0.106070  0.293120  0.323840  1
  O  O37  1  0.280720  0.456880  0.312950  1
  O  O38  1  0.304553  0.375000  0.429553  1
  O  O39  1  0.400414  0.130779  0.147232  1
  O  O40  1  0.266453  0.619221  0.769636  1
  O  O41  1  0.532230  0.356070  0.312950  1
  O  O42  1  0.206880  0.393930  0.676160  1
  O  O43  1  0.625000  0.554553  0.429553  1
  O  O44  1  0.125000  0.695447  0.070447  1
  O  O45  1  0.543120  0.856070  0.823840  1
  O  O46  1  0.217770  0.893930  0.187050  1
  O  O47  1  0.483547  0.630779  0.730364  1
  O  O48  1  0.349586  0.119221  0.352768  1
  O  O49  1  0.445447  0.875000  0.070447  1
  O  O50  1  0.469280  0.793120  0.187050  1
  O  O51  1  0.643930  0.956880  0.176160  1
  O  O52  1  0.380779  0.150414  0.647232  1
  O  O53  1  0.746818  0.599586  0.730364  1
  O  O54  1  0.411135  0.411135  0.000000  1
  O  O55  1  0.588865  0.588865  0.000000  1
  O  O56  1  0.838865  0.338865  0.500000  1
  O  O57  1  0.661135  0.161135  0.500000  1
  O  O58  1  0.869221  0.016453  0.269636  1
  O  O59  1  0.503182  0.733547  0.352768  1
  O  O60  1  0.780720  0.467770  0.823840  1
  O  O61  1  0.606070  0.282230  0.812950  1
  O  O62  1  0.804553  0.375000  0.929553  1
  O  O63  1  0.766453  0.996818  0.647232  1
  O  O64  1  0.706880  0.030720  0.812950  1
  O  O65  1  0.625000  0.054553  0.929553  1
  O  O66  1  0.717770  0.530720  0.323840  1
  O  O67  1  0.849586  0.496818  0.230364  1
