# generated using pymatgen
data_NaV10O15
_symmetry_space_group_name_H-M   'P 1'
_cell_length_a   7.86244121
_cell_length_b   7.86244121
_cell_length_c   9.72592157
_cell_angle_alpha   90.00000000
_cell_angle_beta   90.00000000
_cell_angle_gamma   97.51042853
_symmetry_Int_Tables_number   1
_chemical_formula_structural   NaV10O15
_chemical_formula_sum   'Na2 V20 O30'
_cell_volume   596.07888359
_cell_formula_units_Z   2
loop_
 _symmetry_equiv_pos_site_id
 _symmetry_equiv_pos_as_xyz
  1  'x, y, z'
loop_
 _atom_site_type_symbol
 _atom_site_label
 _atom_site_symmetry_multiplicity
 _atom_site_fract_x
 _atom_site_fract_y
 _atom_site_fract_z
 _atom_site_occupancy
  Na  Na0  1  0.000000  0.000000  0.000000  1
  Na  Na1  1  0.500000  0.500000  0.500000  1
  V  V2  1  0.184144  0.184144  0.632465  1
  V  V3  1  0.315856  0.315856  0.132465  1
  V  V4  1  0.079131  0.598615  0.115484  1
  V  V5  1  0.098615  0.579131  0.384516  1
  V  V6  1  0.579131  0.098615  0.384516  1
  V  V7  1  0.598615  0.079131  0.115484  1
  V  V8  1  0.288946  0.541121  0.854939  1
  V  V9  1  0.041121  0.788946  0.645061  1
  V  V10  1  0.788946  0.041121  0.645061  1
  V  V11  1  0.541121  0.288946  0.854939  1
  V  V12  1  0.711054  0.458879  0.145061  1
  V  V13  1  0.211054  0.958879  0.354939  1
  V  V14  1  0.958879  0.211054  0.354939  1
  V  V15  1  0.458879  0.711054  0.145061  1
  V  V16  1  0.401385  0.920869  0.884516  1
  V  V17  1  0.920869  0.401385  0.884516  1
  V  V18  1  0.901385  0.420869  0.615484  1
  V  V19  1  0.420869  0.901385  0.615484  1
  V  V20  1  0.684144  0.684144  0.867535  1
  V  V21  1  0.815856  0.815856  0.367535  1
  O  O22  1  0.154830  0.154830  0.244319  1
  O  O23  1  0.138425  0.393543  0.995215  1
  O  O24  1  0.393543  0.138425  0.995215  1
  O  O25  1  0.106457  0.361575  0.495215  1
  O  O26  1  0.361575  0.106457  0.495215  1
  O  O27  1  0.568665  0.068665  0.750000  1
  O  O28  1  0.068665  0.568665  0.750000  1
  O  O29  1  0.345170  0.345170  0.744319  1
  O  O30  1  0.038232  0.782137  0.263674  1
  O  O31  1  0.282137  0.538232  0.236326  1
  O  O32  1  0.538232  0.282137  0.236326  1
  O  O33  1  0.782137  0.038232  0.263674  1
  O  O34  1  0.259772  0.740228  0.000000  1
  O  O35  1  0.740228  0.259772  0.000000  1
  O  O36  1  0.000000  0.000000  0.500000  1
  O  O37  1  0.500000  0.500000  0.000000  1
  O  O38  1  0.759772  0.240228  0.500000  1
  O  O39  1  0.240228  0.759772  0.500000  1
  O  O40  1  0.961768  0.217863  0.736326  1
  O  O41  1  0.717863  0.461768  0.763674  1
  O  O42  1  0.461768  0.717863  0.763674  1
  O  O43  1  0.217863  0.961768  0.736326  1
  O  O44  1  0.654830  0.654830  0.255681  1
  O  O45  1  0.431335  0.931335  0.250000  1
  O  O46  1  0.931335  0.431335  0.250000  1
  O  O47  1  0.893543  0.638425  0.504785  1
  O  O48  1  0.638425  0.893543  0.504785  1
  O  O49  1  0.861575  0.606457  0.004785  1
  O  O50  1  0.606457  0.861575  0.004785  1
  O  O51  1  0.845170  0.845170  0.755681  1
