# generated using pymatgen
data_Mn3VNi2(PO4)6
_symmetry_space_group_name_H-M   'P 1'
_cell_length_a   8.47032858
_cell_length_b   8.47032858
_cell_length_c   8.47032858
_cell_angle_alpha   60.90266297
_cell_angle_beta   60.90266297
_cell_angle_gamma   60.90266297
_symmetry_Int_Tables_number   1
_chemical_formula_structural   Mn3VNi2(PO4)6
_chemical_formula_sum   'Mn3 V1 Ni2 P6 O24'
_cell_volume   438.46317418
_cell_formula_units_Z   1
loop_
 _symmetry_equiv_pos_site_id
 _symmetry_equiv_pos_as_xyz
  1  'x, y, z'
loop_
 _atom_site_type_symbol
 _atom_site_label
 _atom_site_symmetry_multiplicity
 _atom_site_fract_x
 _atom_site_fract_y
 _atom_site_fract_z
 _atom_site_occupancy
  Mn  Mn0  1  0.641858  0.641858  0.641858  1
  Mn  Mn1  1  0.857476  0.857476  0.857476  1
  Mn  Mn2  1  0.357652  0.357652  0.357652  1
  V  V3  1  0.142294  0.142294  0.142294  1
  Ni  Ni4  1  0.999961  0.999961  0.999961  1
  Ni  Ni5  1  0.499390  0.499390  0.499390  1
  P  P6  1  0.956818  0.249087  0.544062  1
  P  P7  1  0.544062  0.956818  0.249087  1
  P  P8  1  0.249087  0.544062  0.956818  1
  P  P9  1  0.748968  0.457986  0.043241  1
  P  P10  1  0.457986  0.043241  0.748968  1
  P  P11  1  0.043241  0.748968  0.457986  1
  O  O12  1  0.511969  0.114932  0.310272  1
  O  O13  1  0.310272  0.511969  0.114932  1
  O  O14  1  0.114932  0.310272  0.511969  1
  O  O15  1  0.942440  0.086521  0.742442  1
  O  O16  1  0.001596  0.180796  0.383482  1
  O  O17  1  0.759090  0.409386  0.551590  1
  O  O18  1  0.742442  0.942440  0.086521  1
  O  O19  1  0.551590  0.759090  0.409386  1
  O  O20  1  0.810319  0.617210  0.009547  1
  O  O21  1  0.409386  0.551590  0.759090  1
  O  O22  1  0.913714  0.258234  0.060963  1
  O  O23  1  0.617210  0.009547  0.810319  1
  O  O24  1  0.383482  0.001596  0.180796  1
  O  O25  1  0.086521  0.742442  0.942440  1
  O  O26  1  0.589742  0.441178  0.243403  1
  O  O27  1  0.180796  0.383482  0.001596  1
  O  O28  1  0.441178  0.243403  0.589742  1
  O  O29  1  0.258234  0.060963  0.913714  1
  O  O30  1  0.243403  0.589742  0.441178  1
  O  O31  1  0.009547  0.810319  0.617210  1
  O  O32  1  0.060963  0.913714  0.258234  1
  O  O33  1  0.885930  0.688570  0.487891  1
  O  O34  1  0.688570  0.487891  0.885930  1
  O  O35  1  0.487891  0.885930  0.688570  1
