# generated using pymatgen
data_ErPPd
_symmetry_space_group_name_H-M   'P 1'
_cell_length_a   3.98552875
_cell_length_b   6.88349877
_cell_length_c   7.74532626
_cell_angle_alpha   90.00000000
_cell_angle_beta   90.00000000
_cell_angle_gamma   90.00000000
_symmetry_Int_Tables_number   1
_chemical_formula_structural   ErPPd
_chemical_formula_sum   'Er4 P4 Pd4'
_cell_volume   212.48824126
_cell_formula_units_Z   4
loop_
 _symmetry_equiv_pos_site_id
 _symmetry_equiv_pos_as_xyz
  1  'x, y, z'
loop_
 _atom_site_type_symbol
 _atom_site_label
 _atom_site_symmetry_multiplicity
 _atom_site_fract_x
 _atom_site_fract_y
 _atom_site_fract_z
 _atom_site_occupancy
  Er  Er0  1  0.250000  0.031397  0.187233  1
  Er  Er1  1  0.750000  0.968603  0.812767  1
  Er  Er2  1  0.250000  0.531397  0.312767  1
  Er  Er3  1  0.750000  0.468603  0.687233  1
  P  P4  1  0.250000  0.749169  0.623265  1
  P  P5  1  0.750000  0.250831  0.376735  1
  P  P6  1  0.250000  0.249169  0.876735  1
  P  P7  1  0.750000  0.750831  0.123265  1
  Pd  Pd8  1  0.750000  0.352557  0.061131  1
  Pd  Pd9  1  0.250000  0.647443  0.938869  1
  Pd  Pd10  1  0.750000  0.852557  0.438869  1
  Pd  Pd11  1  0.250000  0.147443  0.561131  1
