# generated using pymatgen
data_Ti7(WO5)6
_symmetry_space_group_name_H-M   'P 1'
_cell_length_a   5.23598492
_cell_length_b   5.23598492
_cell_length_c   23.46266450
_cell_angle_alpha   90.00000000
_cell_angle_beta   90.00000000
_cell_angle_gamma   120.00000000
_symmetry_Int_Tables_number   1
_chemical_formula_structural   Ti7(WO5)6
_chemical_formula_sum   'Ti7 W6 O30'
_cell_volume   557.06354208
_cell_formula_units_Z   1
loop_
 _symmetry_equiv_pos_site_id
 _symmetry_equiv_pos_as_xyz
  1  'x, y, z'
loop_
 _atom_site_type_symbol
 _atom_site_label
 _atom_site_symmetry_multiplicity
 _atom_site_fract_x
 _atom_site_fract_y
 _atom_site_fract_z
 _atom_site_occupancy
  Ti  Ti0  1  0.333333  0.666667  0.282862  1
  Ti  Ti1  1  0.333333  0.666667  0.012995  1
  Ti  Ti2  1  0.333333  0.666667  0.891344  1
  Ti  Ti3  1  0.000000  0.000000  0.982408  1
  Ti  Ti4  1  0.000000  0.000000  0.719421  1
  Ti  Ti5  1  0.333333  0.666667  0.692985  1
  Ti  Ti6  1  0.000000  0.000000  0.308439  1
  W  W7  1  0.333333  0.666667  0.407295  1
  W  W8  1  0.000000  0.000000  0.110784  1
  W  W9  1  0.000000  0.000000  0.593910  1
  W  W10  1  0.666667  0.333333  0.203156  1
  W  W11  1  0.666667  0.333333  0.500468  1
  W  W12  1  0.666667  0.333333  0.804125  1
  O  O13  1  0.939272  0.274878  0.150384  1
  O  O14  1  0.756047  0.667064  0.550483  1
  O  O15  1  0.096520  0.346728  0.347982  1
  O  O16  1  0.978594  0.324932  0.747917  1
  O  O17  1  0.644587  0.740203  0.947959  1
  O  O18  1  0.996798  0.599482  0.844807  1
  O  O19  1  0.998501  0.575792  0.450850  1
  O  O20  1  0.681313  0.916096  0.653891  1
  O  O21  1  0.996616  0.658599  0.253646  1
  O  O22  1  0.239583  0.312399  0.048703  1
  O  O23  1  0.072816  0.760417  0.048703  1
  O  O24  1  0.602683  0.003202  0.844807  1
  O  O25  1  0.083904  0.765217  0.653891  1
  O  O26  1  0.661983  0.003384  0.253646  1
  O  O27  1  0.424208  0.422709  0.450850  1
  O  O28  1  0.911017  0.243953  0.550483  1
  O  O29  1  0.675068  0.653662  0.747917  1
  O  O30  1  0.250208  0.903480  0.347982  1
  O  O31  1  0.725122  0.664394  0.150384  1
  O  O32  1  0.259797  0.904384  0.947959  1
  O  O33  1  0.095616  0.355413  0.947959  1
  O  O34  1  0.346338  0.021406  0.747917  1
  O  O35  1  0.653272  0.749792  0.347982  1
  O  O36  1  0.332936  0.088983  0.550483  1
  O  O37  1  0.335606  0.060728  0.150384  1
  O  O38  1  0.687601  0.927184  0.048703  1
  O  O39  1  0.341401  0.338017  0.253646  1
  O  O40  1  0.234783  0.318687  0.653891  1
  O  O41  1  0.577291  0.001499  0.450850  1
  O  O42  1  0.400518  0.397317  0.844807  1
