# generated using pymatgen
data_La2PdO4
_symmetry_space_group_name_H-M   'P 1'
_cell_length_a   6.94899484
_cell_length_b   6.94899484
_cell_length_c   6.94899484
_cell_angle_alpha   145.71073319
_cell_angle_beta   145.71073319
_cell_angle_gamma   49.27662168
_symmetry_Int_Tables_number   1
_chemical_formula_structural   La2PdO4
_chemical_formula_sum   'La2 Pd1 O4'
_cell_volume   106.01803061
_cell_formula_units_Z   1
loop_
 _symmetry_equiv_pos_site_id
 _symmetry_equiv_pos_as_xyz
  1  'x, y, z'
loop_
 _atom_site_type_symbol
 _atom_site_label
 _atom_site_symmetry_multiplicity
 _atom_site_fract_x
 _atom_site_fract_y
 _atom_site_fract_z
 _atom_site_occupancy
  La  La0  1  0.651532  0.651532  0.000000  1
  La  La1  1  0.348468  0.348468  0.000000  1
  Pd  Pd2  1  0.000000  0.000000  0.000000  1
  O  O3  1  0.750000  0.250000  0.500000  1
  O  O4  1  0.250000  0.750000  0.500000  1
  O  O5  1  0.500000  0.000000  0.500000  1
  O  O6  1  0.000000  0.500000  0.500000  1
