# generated using pymatgen
data_La3AlCrS7
_symmetry_space_group_name_H-M   'P 1'
_cell_length_a   10.21405233
_cell_length_b   10.21405233
_cell_length_c   6.05038244
_cell_angle_alpha   90.00000000
_cell_angle_beta   90.00000000
_cell_angle_gamma   120.00000000
_symmetry_Int_Tables_number   1
_chemical_formula_structural   La3AlCrS7
_chemical_formula_sum   'La6 Al2 Cr2 S14'
_cell_volume   546.65033127
_cell_formula_units_Z   2
loop_
 _symmetry_equiv_pos_site_id
 _symmetry_equiv_pos_as_xyz
  1  'x, y, z'
loop_
 _atom_site_type_symbol
 _atom_site_label
 _atom_site_symmetry_multiplicity
 _atom_site_fract_x
 _atom_site_fract_y
 _atom_site_fract_z
 _atom_site_occupancy
  La  La0  1  0.141568  0.374065  0.245908  1
  La  La1  1  0.858432  0.625935  0.745908  1
  La  La2  1  0.625935  0.767503  0.245908  1
  La  La3  1  0.232497  0.858432  0.245908  1
  La  La4  1  0.767503  0.141568  0.745908  1
  La  La5  1  0.374065  0.232497  0.745908  1
  Al  Al6  1  0.333333  0.666667  0.665141  1
  Al  Al7  1  0.666667  0.333333  0.165141  1
  Cr  Cr8  1  0.000000  0.000000  0.026764  1
  Cr  Cr9  1  0.000000  0.000000  0.526764  1
  S  S10  1  0.333333  0.666667  0.033278  1
  S  S11  1  0.666667  0.333333  0.533278  1
  S  S12  1  0.419580  0.519452  0.521630  1
  S  S13  1  0.580420  0.480548  0.021630  1
  S  S14  1  0.480548  0.900129  0.521630  1
  S  S15  1  0.099871  0.580420  0.521630  1
  S  S16  1  0.900129  0.419580  0.021630  1
  S  S17  1  0.519452  0.099871  0.021630  1
  S  S18  1  0.087661  0.229183  0.778749  1
  S  S19  1  0.912339  0.770817  0.278749  1
  S  S20  1  0.770817  0.858478  0.778749  1
  S  S21  1  0.141522  0.912339  0.778749  1
  S  S22  1  0.858478  0.087661  0.278749  1
  S  S23  1  0.229183  0.141522  0.278749  1
