# generated using pymatgen
data_Li5Co7O3F13
_symmetry_space_group_name_H-M   'P 1'
_cell_length_a   6.03837008
_cell_length_b   6.09113002
_cell_length_c   10.58232071
_cell_angle_alpha   73.37318696
_cell_angle_beta   73.47831884
_cell_angle_gamma   60.48033240
_symmetry_Int_Tables_number   1
_chemical_formula_structural   Li5Co7O3F13
_chemical_formula_sum   'Li5 Co7 O3 F13'
_cell_volume   319.70026299
_cell_formula_units_Z   1
loop_
 _symmetry_equiv_pos_site_id
 _symmetry_equiv_pos_as_xyz
  1  'x, y, z'
loop_
 _atom_site_type_symbol
 _atom_site_label
 _atom_site_symmetry_multiplicity
 _atom_site_fract_x
 _atom_site_fract_y
 _atom_site_fract_z
 _atom_site_occupancy
  Li  Li0  1  0.753504  0.735450  0.749902  1
  Li  Li1  1  0.195349  0.697594  0.434845  1
  Li  Li2  1  0.804600  0.305537  0.564103  1
  Li  Li3  1  0.755089  0.250379  0.252737  1
  Li  Li4  1  0.315895  0.804505  0.064521  1
  Co  Co5  1  0.680303  0.221657  0.926079  1
  Co  Co6  1  0.003113  0.484304  0.991853  1
  Co  Co7  1  0.258518  0.733853  0.752262  1
  Co  Co8  1  0.238396  0.257851  0.759786  1
  Co  Co9  1  0.500269  0.994855  0.495214  1
  Co  Co10  1  0.253010  0.231906  0.258293  1
  Co  Co11  1  0.735653  0.750308  0.258123  1
  O  O12  1  0.349396  0.398940  0.870221  1
  O  O13  1  0.891343  0.390008  0.868210  1
  O  O14  1  0.397459  0.894886  0.369377  1
  F  F15  1  0.877826  0.870403  0.868846  1
  F  F16  1  0.117206  0.634050  0.631886  1
  F  F17  1  0.619799  0.640022  0.625370  1
  F  F18  1  0.379671  0.874691  0.863899  1
  F  F19  1  0.138083  0.105785  0.632109  1
  F  F20  1  0.597536  0.118234  0.626385  1
  F  F21  1  0.865150  0.890691  0.367843  1
  F  F22  1  0.628442  0.126695  0.132276  1
  F  F23  1  0.390094  0.362172  0.369694  1
  F  F24  1  0.118719  0.133806  0.131788  1
  F  F25  1  0.880101  0.376919  0.370144  1
  F  F26  1  0.107071  0.604655  0.135248  1
  F  F27  1  0.648402  0.609844  0.128988  1
