# generated using pymatgen
data_Li3VO3F2
_symmetry_space_group_name_H-M   'P 1'
_cell_length_a   5.37059534
_cell_length_b   5.37059534
_cell_length_c   8.06860436
_cell_angle_alpha   83.70387492
_cell_angle_beta   96.29612508
_cell_angle_gamma   115.28366252
_symmetry_Int_Tables_number   1
_chemical_formula_structural   Li3VO3F2
_chemical_formula_sum   'Li6 V2 O6 F4'
_cell_volume   208.65013829
_cell_formula_units_Z   2
loop_
 _symmetry_equiv_pos_site_id
 _symmetry_equiv_pos_as_xyz
  1  'x, y, z'
loop_
 _atom_site_type_symbol
 _atom_site_label
 _atom_site_symmetry_multiplicity
 _atom_site_fract_x
 _atom_site_fract_y
 _atom_site_fract_z
 _atom_site_occupancy
  Li  Li0  1  0.754703  0.571568  0.435946  1
  Li  Li1  1  0.572527  0.784084  0.067778  1
  Li  Li2  1  0.428432  0.245297  0.935946  1
  Li  Li3  1  0.215916  0.427473  0.567778  1
  Li  Li4  1  0.376910  0.971719  0.631146  1
  Li  Li5  1  0.028281  0.623090  0.131146  1
  V  V6  1  0.831042  0.828144  0.753871  1
  V  V7  1  0.171856  0.168958  0.253871  1
  O  O8  1  0.879019  0.862257  0.246716  1
  O  O9  1  0.772183  0.600679  0.928321  1
  O  O10  1  0.399321  0.227817  0.428321  1
  O  O11  1  0.586182  0.748257  0.587309  1
  O  O12  1  0.251743  0.413818  0.087309  1
  O  O13  1  0.137743  0.120981  0.746716  1
  F  F14  1  0.991499  0.376548  0.346669  1
  F  F15  1  0.623452  0.008501  0.846669  1
  F  F16  1  0.357251  0.981450  0.135523  1
  F  F17  1  0.018550  0.642749  0.635523  1
