# generated using pymatgen
data_Ca(BO2)2
_symmetry_space_group_name_H-M   'P 1'
_cell_length_a   5.05546755
_cell_length_b   8.43414737
_cell_length_c   14.00141594
_cell_angle_alpha   90.00000000
_cell_angle_beta   90.00000000
_cell_angle_gamma   90.00000000
_symmetry_Int_Tables_number   1
_chemical_formula_structural   Ca(BO2)2
_chemical_formula_sum   'Ca8 B16 O32'
_cell_volume   597.00019041
_cell_formula_units_Z   8
loop_
 _symmetry_equiv_pos_site_id
 _symmetry_equiv_pos_as_xyz
  1  'x, y, z'
loop_
 _atom_site_type_symbol
 _atom_site_label
 _atom_site_symmetry_multiplicity
 _atom_site_fract_x
 _atom_site_fract_y
 _atom_site_fract_z
 _atom_site_occupancy
  Ca  Ca0  1  0.619107  0.384746  0.356461  1
  Ca  Ca1  1  0.619107  0.115254  0.143539  1
  Ca  Ca2  1  0.880893  0.884746  0.643539  1
  Ca  Ca3  1  0.880893  0.615254  0.856461  1
  Ca  Ca4  1  0.380893  0.615254  0.643539  1
  Ca  Ca5  1  0.380893  0.884746  0.856461  1
  Ca  Ca6  1  0.119107  0.115254  0.356461  1
  Ca  Ca7  1  0.119107  0.384746  0.143539  1
  B  B8  1  0.869474  0.745492  0.448915  1
  B  B9  1  0.869474  0.754508  0.051085  1
  B  B10  1  0.630526  0.245492  0.551085  1
  B  B11  1  0.630526  0.254508  0.948915  1
  B  B12  1  0.130526  0.254508  0.551085  1
  B  B13  1  0.130526  0.245492  0.948915  1
  B  B14  1  0.369474  0.754508  0.448915  1
  B  B15  1  0.369474  0.745492  0.051085  1
  B  B16  1  0.623995  0.536685  0.137915  1
  B  B17  1  0.623995  0.963315  0.362085  1
  B  B18  1  0.876005  0.036685  0.862085  1
  B  B19  1  0.876005  0.463315  0.637915  1
  B  B20  1  0.376005  0.463315  0.862085  1
  B  B21  1  0.376005  0.036685  0.637915  1
  B  B22  1  0.123995  0.963315  0.137915  1
  B  B23  1  0.123995  0.536685  0.362085  1
  O  O24  1  0.356874  0.888639  0.114184  1
  O  O25  1  0.356874  0.611361  0.385816  1
  O  O26  1  0.143126  0.388639  0.885816  1
  O  O27  1  0.143126  0.111361  0.614184  1
  O  O28  1  0.643126  0.111361  0.885816  1
  O  O29  1  0.643126  0.388639  0.614184  1
  O  O30  1  0.856874  0.611361  0.114184  1
  O  O31  1  0.856874  0.888639  0.385816  1
  O  O32  1  0.628304  0.394781  0.186119  1
  O  O33  1  0.628304  0.105219  0.313881  1
  O  O34  1  0.871696  0.894781  0.813881  1
  O  O35  1  0.871696  0.605219  0.686119  1
  O  O36  1  0.371696  0.605219  0.813881  1
  O  O37  1  0.371696  0.894781  0.686119  1
  O  O38  1  0.128304  0.105219  0.186119  1
  O  O39  1  0.128304  0.394781  0.313881  1
  O  O40  1  0.119713  0.741101  0.992227  1
  O  O41  1  0.119713  0.758899  0.507773  1
  O  O42  1  0.380287  0.241101  0.007773  1
  O  O43  1  0.380287  0.258899  0.492227  1
  O  O44  1  0.880287  0.258899  0.007773  1
  O  O45  1  0.880287  0.241101  0.492227  1
  O  O46  1  0.619713  0.758899  0.992227  1
  O  O47  1  0.619713  0.741101  0.507773  1
  O  O48  1  0.385629  0.600586  0.110063  1
  O  O49  1  0.385629  0.899414  0.389937  1
  O  O50  1  0.114371  0.100586  0.889937  1
  O  O51  1  0.114371  0.399414  0.610063  1
  O  O52  1  0.614371  0.399414  0.889937  1
  O  O53  1  0.614371  0.100586  0.610063  1
  O  O54  1  0.885629  0.899414  0.110063  1
  O  O55  1  0.885629  0.600586  0.389937  1
