# generated using pymatgen
data_Si6BiO14
_symmetry_space_group_name_H-M   'P 1'
_cell_length_a   13.16482886
_cell_length_b   13.16482886
_cell_length_c   13.16482886
_cell_angle_alpha   146.48886281
_cell_angle_beta   107.76062435
_cell_angle_gamma   82.02046324
_symmetry_Int_Tables_number   1
_chemical_formula_structural   Si6BiO14
_chemical_formula_sum   'Si24 Bi4 O56'
_cell_volume   1170.33792461
_cell_formula_units_Z   4
loop_
 _symmetry_equiv_pos_site_id
 _symmetry_equiv_pos_as_xyz
  1  'x, y, z'
loop_
 _atom_site_type_symbol
 _atom_site_label
 _atom_site_symmetry_multiplicity
 _atom_site_fract_x
 _atom_site_fract_y
 _atom_site_fract_z
 _atom_site_occupancy
  Si  Si0  1  0.268630  0.505120  0.476735  1
  Si  Si1  1  0.220772  0.892513  0.820372  1
  Si  Si2  1  0.870668  0.174244  0.044913  1
  Si  Si3  1  0.072141  0.400400  0.179628  1
  Si  Si4  1  0.028385  0.791895  0.523265  1
  Si  Si5  1  0.829338  0.761306  0.590644  1
  Si  Si6  1  0.427859  0.607487  0.328259  1
  Si  Si7  1  0.471615  0.994880  0.763510  1
  Si  Si8  1  0.629332  0.674244  0.303576  1
  Si  Si9  1  0.231370  0.708105  0.236490  1
  Si  Si10  1  0.279228  0.099600  0.671741  1
  Si  Si11  1  0.670662  0.261306  0.931968  1
  Si  Si12  1  0.329338  0.738694  0.068032  1
  Si  Si13  1  0.720772  0.900400  0.328259  1
  Si  Si14  1  0.768630  0.291895  0.763510  1
  Si  Si15  1  0.370668  0.325756  0.696424  1
  Si  Si16  1  0.528385  0.005120  0.236490  1
  Si  Si17  1  0.572141  0.392513  0.671741  1
  Si  Si18  1  0.170662  0.238694  0.409356  1
  Si  Si19  1  0.971615  0.208105  0.476735  1
  Si  Si20  1  0.927859  0.599600  0.820372  1
  Si  Si21  1  0.129332  0.825756  0.955087  1
  Si  Si22  1  0.779228  0.107487  0.179628  1
  Si  Si23  1  0.731370  0.494880  0.523265  1
  Bi  Bi24  1  0.461452  0.250000  0.211452  1
  Bi  Bi25  1  0.038548  0.250000  0.788548  1
  Bi  Bi26  1  0.961452  0.750000  0.211452  1
  Bi  Bi27  1  0.538548  0.750000  0.788548  1
  O  O28  1  0.295175  0.100285  0.038147  1
  O  O29  1  0.860415  0.174988  0.164833  1
  O  O30  1  0.606530  0.532184  0.530842  1
  O  O31  1  0.295846  0.734898  0.695346  1
  O  O32  1  0.195112  0.451704  0.308241  1
  O  O33  1  0.795776  0.595702  0.527058  1
  O  O34  1  0.437862  0.399715  0.194890  1
  O  O35  1  0.989845  0.304418  0.164833  1
  O  O36  1  0.143463  0.886872  0.691759  1
  O  O37  1  0.775183  0.262380  0.037563  1
  O  O38  1  0.501342  0.032184  0.925654  1
  O  O39  1  0.039552  0.600500  0.304654  1
  O  O40  1  0.460448  0.765102  0.560949  1
  O  O41  1  0.863822  0.961587  0.825409  1
  O  O42  1  0.931356  0.731283  0.527058  1
  O  O43  1  0.304888  0.613128  0.256592  1
  O  O44  1  0.724817  0.762380  0.487197  1
  O  O45  1  0.636178  0.461587  0.097765  1
  O  O46  1  0.062138  0.257028  0.961853  1
  O  O47  1  0.356537  0.048296  0.743408  1
  O  O48  1  0.510155  0.674988  0.314573  1
  O  O49  1  0.568644  0.095702  0.799927  1
  O  O50  1  0.106530  0.575688  0.074346  1
  O  O51  1  0.204154  0.899500  0.439051  1
  O  O52  1  0.204825  0.242972  0.805110  1
  O  O53  1  0.998658  0.924312  0.530842  1
  O  O54  1  0.639585  0.804418  0.314573  1
  O  O55  1  0.295776  0.768717  0.200073  1
  O  O56  1  0.704224  0.231283  0.799927  1
  O  O57  1  0.360415  0.195582  0.685427  1
  O  O58  1  0.001342  0.075688  0.469158  1
  O  O59  1  0.795175  0.757028  0.194890  1
  O  O60  1  0.795846  0.100500  0.560949  1
  O  O61  1  0.893470  0.424312  0.925654  1
  O  O62  1  0.431356  0.904298  0.200073  1
  O  O63  1  0.489845  0.325012  0.685427  1
  O  O64  1  0.643463  0.951704  0.256592  1
  O  O65  1  0.937862  0.742972  0.038147  1
  O  O66  1  0.363822  0.538413  0.902235  1
  O  O67  1  0.275183  0.237620  0.512803  1
  O  O68  1  0.695112  0.386872  0.743408  1
  O  O69  1  0.068644  0.268717  0.472942  1
  O  O70  1  0.136178  0.038413  0.174591  1
  O  O71  1  0.539552  0.234898  0.439051  1
  O  O72  1  0.960448  0.399500  0.695346  1
  O  O73  1  0.498658  0.967816  0.074346  1
  O  O74  1  0.224817  0.737620  0.962437  1
  O  O75  1  0.856537  0.113128  0.308241  1
  O  O76  1  0.010155  0.695582  0.835167  1
  O  O77  1  0.562138  0.600285  0.805110  1
  O  O78  1  0.204224  0.404298  0.472942  1
  O  O79  1  0.804888  0.548296  0.691759  1
  O  O80  1  0.704154  0.265102  0.304654  1
  O  O81  1  0.393470  0.467816  0.469158  1
  O  O82  1  0.139585  0.825012  0.835167  1
  O  O83  1  0.704825  0.899715  0.961853  1
