# generated using pymatgen
data_K2MnTe2
_symmetry_space_group_name_H-M   'P 1'
_cell_length_a   8.80378625
_cell_length_b   8.80378625
_cell_length_c   8.80378625
_cell_angle_alpha   133.10615133
_cell_angle_beta   129.58035828
_cell_angle_gamma   71.30611045
_symmetry_Int_Tables_number   1
_chemical_formula_structural   K2MnTe2
_chemical_formula_sum   'K4 Mn2 Te4'
_cell_volume   375.87253714
_cell_formula_units_Z   2
loop_
 _symmetry_equiv_pos_site_id
 _symmetry_equiv_pos_as_xyz
  1  'x, y, z'
loop_
 _atom_site_type_symbol
 _atom_site_label
 _atom_site_symmetry_multiplicity
 _atom_site_fract_x
 _atom_site_fract_y
 _atom_site_fract_z
 _atom_site_occupancy
  K  K0  1  0.965328  0.142646  0.822682  1
  K  K1  1  0.034672  0.857354  0.177318  1
  K  K2  1  0.680036  0.357354  0.322682  1
  K  K3  1  0.319964  0.642646  0.677318  1
  Mn  Mn4  1  0.500000  0.250000  0.750000  1
  Mn  Mn5  1  0.500000  0.750000  0.250000  1
  Te  Te6  1  0.589823  0.892426  0.697398  1
  Te  Te7  1  0.410177  0.107574  0.302602  1
  Te  Te8  1  0.804972  0.607574  0.197398  1
  Te  Te9  1  0.195028  0.392426  0.802602  1
