# generated using pymatgen
data_Li4V3P8O29
_symmetry_space_group_name_H-M   'P 1'
_cell_length_a   9.75421670
_cell_length_b   9.75421670
_cell_length_c   14.16685640
_cell_angle_alpha   89.66910341
_cell_angle_beta   90.33089659
_cell_angle_gamma   119.93863475
_symmetry_Int_Tables_number   1
_chemical_formula_structural   Li4V3P8O29
_chemical_formula_sum   'Li8 V6 P16 O58'
_cell_volume   1168.01246292
_cell_formula_units_Z   2
loop_
 _symmetry_equiv_pos_site_id
 _symmetry_equiv_pos_as_xyz
  1  'x, y, z'
loop_
 _atom_site_type_symbol
 _atom_site_label
 _atom_site_symmetry_multiplicity
 _atom_site_fract_x
 _atom_site_fract_y
 _atom_site_fract_z
 _atom_site_occupancy
  Li  Li0  1  0.669599  0.910331  0.438850  1
  Li  Li1  1  0.667973  0.765614  0.941739  1
  Li  Li2  1  0.089669  0.330401  0.938850  1
  Li  Li3  1  0.769005  0.668513  0.557136  1
  Li  Li4  1  0.234386  0.332027  0.441739  1
  Li  Li5  1  0.331487  0.230995  0.057136  1
  Li  Li6  1  0.989691  0.951921  0.004260  1
  Li  Li7  1  0.048079  0.010309  0.504260  1
  V  V8  1  0.566279  0.565910  0.750861  1
  V  V9  1  0.434090  0.433721  0.250861  1
  V  V10  1  0.003840  0.566724  0.250452  1
  V  V11  1  0.995811  0.438544  0.748726  1
  V  V12  1  0.433276  0.996160  0.750452  1
  V  V13  1  0.561456  0.004189  0.248726  1
  P  P14  1  0.218360  0.916507  0.161039  1
  P  P15  1  0.083493  0.781640  0.661039  1
  P  P16  1  0.687471  0.914655  0.653322  1
  P  P17  1  0.333344  0.665263  0.868699  1
  P  P18  1  0.334737  0.666656  0.368699  1
  P  P19  1  0.684526  0.776958  0.159111  1
  P  P20  1  0.777385  0.687351  0.338629  1
  P  P21  1  0.085345  0.312529  0.153322  1
  P  P22  1  0.916599  0.695192  0.846382  1
  P  P23  1  0.223042  0.315474  0.659111  1
  P  P24  1  0.312649  0.222615  0.838629  1
  P  P25  1  0.664104  0.332060  0.632084  1
  P  P26  1  0.667940  0.335896  0.132084  1
  P  P27  1  0.304808  0.083401  0.346382  1
  P  P28  1  0.917008  0.220523  0.337164  1
  P  P29  1  0.779477  0.082992  0.837164  1
  O  O30  1  0.211378  0.006006  0.432053  1
  O  O31  1  0.257972  0.914528  0.665690  1
  O  O32  1  0.993994  0.788622  0.932053  1
  O  O33  1  0.085472  0.742028  0.165690  1
  O  O34  1  0.381013  0.923156  0.171506  1
  O  O35  1  0.331542  0.811056  0.820633  1
  O  O36  1  0.530221  0.912825  0.672098  1
  O  O37  1  0.793975  0.989918  0.916925  1
  O  O38  1  0.650069  0.915415  0.172104  1
  O  O39  1  0.188944  0.668458  0.320633  1
  O  O40  1  0.076844  0.618987  0.671506  1
  O  O41  1  0.486356  0.814548  0.327752  1
  O  O42  1  0.333944  0.665687  0.973787  1
  O  O43  1  0.334313  0.666056  0.473787  1
  O  O44  1  0.487896  0.673064  0.829892  1
  O  O45  1  0.087175  0.469779  0.172098  1
  O  O46  1  0.185452  0.513644  0.827752  1
  O  O47  1  0.660330  0.743359  0.662975  1
  O  O48  1  0.798682  0.796857  0.248046  1
  O  O49  1  0.779569  0.773356  0.427469  1
  O  O50  1  0.769785  0.795088  0.068623  1
  O  O51  1  0.532033  0.619664  0.171864  1
  O  O52  1  0.326936  0.512104  0.329892  1
  O  O53  1  0.741659  0.656414  0.839192  1
  O  O54  1  0.380336  0.467967  0.671864  1
  O  O55  1  0.084585  0.349931  0.672104  1
  O  O56  1  0.001398  0.801430  0.753688  1
  O  O57  1  0.996233  0.794114  0.577014  1
  O  O58  1  0.010082  0.206025  0.416925  1
  O  O59  1  0.917574  0.656770  0.333741  1
  O  O60  1  0.619536  0.529863  0.326264  1
  O  O61  1  0.256641  0.339670  0.162975  1
  O  O62  1  0.672110  0.486850  0.667886  1
  O  O63  1  0.470137  0.380464  0.826264  1
  O  O64  1  0.226644  0.220431  0.927469  1
  O  O65  1  0.204912  0.230215  0.568623  1
  O  O66  1  0.203143  0.201318  0.748046  1
  O  O67  1  0.343586  0.258341  0.339192  1
  O  O68  1  0.813869  0.479362  0.180359  1
  O  O69  1  0.923898  0.540881  0.831140  1
  O  O70  1  0.513150  0.327890  0.167886  1
  O  O71  1  0.672692  0.328689  0.027780  1
  O  O72  1  0.671311  0.327308  0.527780  1
  O  O73  1  0.520638  0.186131  0.680359  1
  O  O74  1  0.924758  0.382748  0.328339  1
  O  O75  1  0.812981  0.334677  0.682374  1
  O  O76  1  0.343230  0.082426  0.833741  1
  O  O77  1  0.198570  0.998602  0.253688  1
  O  O78  1  0.205886  0.003767  0.077014  1
  O  O79  1  0.459119  0.076102  0.331140  1
  O  O80  1  0.665323  0.187019  0.182374  1
  O  O81  1  0.617252  0.075242  0.828339  1
  O  O82  1  0.915270  0.258386  0.839160  1
  O  O83  1  0.014820  0.236743  0.060994  1
  O  O84  1  0.986182  0.196100  0.238523  1
  O  O85  1  0.741614  0.084730  0.339160  1
  O  O86  1  0.763257  0.985180  0.560994  1
  O  O87  1  0.803900  0.013818  0.738523  1
