# generated using pymatgen
data_LiFe4(BO3)4
_symmetry_space_group_name_H-M   'P 1'
_cell_length_a   5.23888296
_cell_length_b   5.26686487
_cell_length_c   20.11006102
_cell_angle_alpha   90.48053681
_cell_angle_beta   90.06612261
_cell_angle_gamma   118.94263081
_symmetry_Int_Tables_number   1
_chemical_formula_structural   LiFe4(BO3)4
_chemical_formula_sum   'Li2 Fe8 B8 O24'
_cell_volume   485.55820427
_cell_formula_units_Z   2
loop_
 _symmetry_equiv_pos_site_id
 _symmetry_equiv_pos_as_xyz
  1  'x, y, z'
loop_
 _atom_site_type_symbol
 _atom_site_label
 _atom_site_symmetry_multiplicity
 _atom_site_fract_x
 _atom_site_fract_y
 _atom_site_fract_z
 _atom_site_occupancy
  Li  Li0  1  0.664854  0.642466  0.828640  1
  Li  Li1  1  0.344712  0.345541  0.450088  1
  Fe  Fe2  1  0.005453  0.675484  0.189251  1
  Fe  Fe3  1  0.998811  0.672422  0.689865  1
  Fe  Fe4  1  0.328214  0.997037  0.065062  1
  Fe  Fe5  1  0.324739  0.993989  0.564267  1
  Fe  Fe6  1  0.683312  0.996923  0.438469  1
  Fe  Fe7  1  0.678272  0.018800  0.938527  1
  Fe  Fe8  1  0.994321  0.331848  0.315088  1
  Fe  Fe9  1  0.005883  0.314249  0.811877  1
  B  B10  1  0.000502  0.339599  0.064172  1
  B  B11  1  0.997637  0.337847  0.563157  1
  B  B12  1  0.666207  0.006919  0.188658  1
  B  B13  1  0.658630  0.003500  0.688178  1
  B  B14  1  0.339644  0.999629  0.314145  1
  B  B15  1  0.336281  0.994774  0.813959  1
  B  B16  1  0.001624  0.664925  0.439916  1
  B  B17  1  0.010511  0.669466  0.937525  1
  O  O18  1  0.880556  0.273852  0.214351  1
  O  O19  1  0.879936  0.271722  0.709850  1
  O  O20  1  0.733255  0.123538  0.037952  1
  O  O21  1  0.012295  0.596792  0.087675  1
  O  O22  1  0.726566  0.116142  0.543427  1
  O  O23  1  0.019701  0.598363  0.587004  1
  O  O24  1  0.406127  0.991120  0.164736  1
  O  O25  1  0.737590  0.652615  0.439763  1
  O  O26  1  0.394601  0.985068  0.666381  1
  O  O27  1  0.786212  0.726535  0.926601  1
  O  O28  1  0.708252  0.773242  0.186697  1
  O  O29  1  0.694264  0.763959  0.690658  1
  O  O30  1  0.285385  0.225246  0.321623  1
  O  O31  1  0.349961  0.258153  0.815111  1
  O  O32  1  0.234825  0.296811  0.066077  1
  O  O33  1  0.604367  0.024354  0.334494  1
  O  O34  1  0.240209  0.304991  0.555182  1
  O  O35  1  0.575155  0.965870  0.837246  1
  O  O36  1  0.032374  0.426734  0.417116  1
  O  O37  1  0.983574  0.404950  0.917286  1
  O  O38  1  0.256002  0.912745  0.462729  1
  O  O39  1  0.272842  0.878250  0.966006  1
  O  O40  1  0.127779  0.733158  0.287256  1
  O  O41  1  0.086212  0.742960  0.790902  1
