# generated using pymatgen
data_Li4Ti2Ni3Sb3O16
_symmetry_space_group_name_H-M   'P 1'
_cell_length_a   6.09763101
_cell_length_b   6.09763101
_cell_length_c   9.69746521
_cell_angle_alpha   89.72350730
_cell_angle_beta   90.27649270
_cell_angle_gamma   119.64872545
_symmetry_Int_Tables_number   1
_chemical_formula_structural   Li4Ti2Ni3Sb3O16
_chemical_formula_sum   'Li4 Ti2 Ni3 Sb3 O16'
_cell_volume   313.35078029
_cell_formula_units_Z   1
loop_
 _symmetry_equiv_pos_site_id
 _symmetry_equiv_pos_as_xyz
  1  'x, y, z'
loop_
 _atom_site_type_symbol
 _atom_site_label
 _atom_site_symmetry_multiplicity
 _atom_site_fract_x
 _atom_site_fract_y
 _atom_site_fract_z
 _atom_site_occupancy
  Li  Li0  1  0.329532  0.670468  0.112455  1
  Li  Li1  1  0.014020  0.985980  0.014426  1
  Li  Li2  1  0.009589  0.990411  0.495322  1
  Li  Li3  1  0.673425  0.326575  0.597968  1
  Ti  Ti4  1  0.323487  0.676513  0.496051  1
  Ti  Ti5  1  0.642046  0.357954  0.025788  1
  Ni  Ni6  1  0.170188  0.829812  0.785562  1
  Ni  Ni7  1  0.339328  0.172906  0.287395  1
  Ni  Ni8  1  0.827094  0.660672  0.287395  1
  Sb  Sb9  1  0.169834  0.337827  0.784350  1
  Sb  Sb10  1  0.662173  0.830166  0.784350  1
  Sb  Sb11  1  0.826799  0.173201  0.284165  1
  O  O12  1  0.155918  0.339226  0.406685  1
  O  O13  1  0.488846  0.511154  0.661607  1
  O  O14  1  0.335950  0.664050  0.898958  1
  O  O15  1  0.000957  0.999043  0.683238  1
  O  O16  1  0.996570  0.003430  0.199192  1
  O  O17  1  0.660774  0.844082  0.406685  1
  O  O18  1  0.046224  0.514768  0.655951  1
  O  O19  1  0.485232  0.953776  0.655951  1
  O  O20  1  0.841734  0.158266  0.898109  1
  O  O21  1  0.173806  0.826194  0.408709  1
  O  O22  1  0.528191  0.042661  0.152674  1
  O  O23  1  0.957339  0.471809  0.152674  1
  O  O24  1  0.668526  0.331474  0.394020  1
  O  O25  1  0.330093  0.173416  0.906375  1
  O  O26  1  0.515552  0.484448  0.149721  1
  O  O27  1  0.826584  0.669907  0.906375  1
