# generated using pymatgen
data_Li4Ti3V2Cu3O16
_symmetry_space_group_name_H-M   'P 1'
_cell_length_a   5.91572737
_cell_length_b   5.91572737
_cell_length_c   9.73557460
_cell_angle_alpha   89.11357072
_cell_angle_beta   90.88642928
_cell_angle_gamma   119.96486925
_symmetry_Int_Tables_number   1
_chemical_formula_structural   Li4Ti3V2Cu3O16
_chemical_formula_sum   'Li4 Ti3 V2 Cu3 O16'
_cell_volume   295.11604589
_cell_formula_units_Z   1
loop_
 _symmetry_equiv_pos_site_id
 _symmetry_equiv_pos_as_xyz
  1  'x, y, z'
loop_
 _atom_site_type_symbol
 _atom_site_label
 _atom_site_symmetry_multiplicity
 _atom_site_fract_x
 _atom_site_fract_y
 _atom_site_fract_z
 _atom_site_occupancy
  Li  Li0  1  0.326590  0.673410  0.093504  1
  Li  Li1  1  0.006940  0.993060  0.016210  1
  Li  Li2  1  0.003037  0.996963  0.506354  1
  Li  Li3  1  0.664570  0.335430  0.593816  1
  Ti  Ti4  1  0.153902  0.345485  0.777546  1
  Ti  Ti5  1  0.654515  0.846098  0.777546  1
  Ti  Ti6  1  0.818421  0.181579  0.262924  1
  V  V7  1  0.338289  0.661711  0.500835  1
  V  V8  1  0.638327  0.361673  0.013817  1
  Cu  Cu9  1  0.171220  0.828780  0.791058  1
  Cu  Cu10  1  0.337795  0.172680  0.296823  1
  Cu  Cu11  1  0.827320  0.662205  0.296823  1
  O  O12  1  0.173256  0.350435  0.413274  1
  O  O13  1  0.482796  0.517204  0.665821  1
  O  O14  1  0.338012  0.661988  0.890805  1
  O  O15  1  0.004887  0.995113  0.697223  1
  O  O16  1  0.999571  0.000429  0.210128  1
  O  O17  1  0.649565  0.826744  0.413274  1
  O  O18  1  0.037227  0.496064  0.652406  1
  O  O19  1  0.503936  0.962773  0.652406  1
  O  O20  1  0.840000  0.160000  0.895120  1
  O  O21  1  0.182472  0.817528  0.429864  1
  O  O22  1  0.529084  0.036594  0.149591  1
  O  O23  1  0.963406  0.470916  0.149591  1
  O  O24  1  0.670683  0.329317  0.388295  1
  O  O25  1  0.349099  0.181555  0.911891  1
  O  O26  1  0.516001  0.483999  0.133313  1
  O  O27  1  0.818445  0.650901  0.911891  1
