# generated using pymatgen
data_FeBO3
_symmetry_space_group_name_H-M   'P 1'
_cell_length_a   4.99938529
_cell_length_b   4.99938529
_cell_length_c   5.46536183
_cell_angle_alpha   87.62603281
_cell_angle_beta   92.37396719
_cell_angle_gamma   59.79180370
_symmetry_Int_Tables_number   1
_chemical_formula_structural   FeBO3
_chemical_formula_sum   'Fe2 B2 O6'
_cell_volume   117.64213662
_cell_formula_units_Z   2
loop_
 _symmetry_equiv_pos_site_id
 _symmetry_equiv_pos_as_xyz
  1  'x, y, z'
loop_
 _atom_site_type_symbol
 _atom_site_label
 _atom_site_symmetry_multiplicity
 _atom_site_fract_x
 _atom_site_fract_y
 _atom_site_fract_z
 _atom_site_occupancy
  Fe  Fe0  1  0.000000  0.000000  0.500000  1
  Fe  Fe1  1  0.000000  0.000000  0.000000  1
  B  B2  1  0.666851  0.666851  0.750000  1
  B  B3  1  0.333149  0.333149  0.250000  1
  O  O4  1  0.826114  0.826114  0.750000  1
  O  O5  1  0.173886  0.173886  0.250000  1
  O  O6  1  0.823930  0.350349  0.729673  1
  O  O7  1  0.350349  0.823930  0.770327  1
  O  O8  1  0.649651  0.176070  0.229673  1
  O  O9  1  0.176070  0.649651  0.270327  1
