# generated using pymatgen
data_VF4
_symmetry_space_group_name_H-M   'P 1'
_cell_length_a   7.53105687
_cell_length_b   5.08069540
_cell_length_c   7.54859467
_cell_angle_alpha   90.00000000
_cell_angle_beta   103.53885380
_cell_angle_gamma   90.00000000
_symmetry_Int_Tables_number   1
_chemical_formula_structural   VF4
_chemical_formula_sum   'V4 F16'
_cell_volume   280.80568601
_cell_formula_units_Z   4
loop_
 _symmetry_equiv_pos_site_id
 _symmetry_equiv_pos_as_xyz
  1  'x, y, z'
loop_
 _atom_site_type_symbol
 _atom_site_label
 _atom_site_symmetry_multiplicity
 _atom_site_fract_x
 _atom_site_fract_y
 _atom_site_fract_z
 _atom_site_occupancy
  V  V0  1  0.189822  0.746120  0.801006  1
  V  V1  1  0.689822  0.753880  0.801006  1
  V  V2  1  0.310178  0.246120  0.198994  1
  V  V3  1  0.810178  0.253880  0.198994  1
  F  F4  1  0.283753  0.051968  0.965347  1
  F  F5  1  0.783753  0.448032  0.965347  1
  F  F6  1  0.444911  0.642425  0.815535  1
  F  F7  1  0.101461  0.448629  0.695153  1
  F  F8  1  0.944911  0.857575  0.815535  1
  F  F9  1  0.601461  0.051371  0.695153  1
  F  F10  1  0.192090  0.950546  0.614188  1
  F  F11  1  0.692090  0.549454  0.614188  1
  F  F12  1  0.307910  0.450546  0.385812  1
  F  F13  1  0.807910  0.049454  0.385812  1
  F  F14  1  0.398539  0.948629  0.304847  1
  F  F15  1  0.055089  0.142425  0.184465  1
  F  F16  1  0.898539  0.551371  0.304847  1
  F  F17  1  0.555089  0.357575  0.184465  1
  F  F18  1  0.216247  0.551968  0.034653  1
  F  F19  1  0.716247  0.948032  0.034653  1
