# generated using pymatgen
data_CuH3NCl
_symmetry_space_group_name_H-M   'P 1'
_cell_length_a   7.23650396
_cell_length_b   7.23650396
_cell_length_c   7.23650396
_cell_angle_alpha   109.47122063
_cell_angle_beta   109.47122063
_cell_angle_gamma   109.47122063
_symmetry_Int_Tables_number   1
_chemical_formula_structural   CuH3NCl
_chemical_formula_sum   'Cu4 H12 N4 Cl4'
_cell_volume   291.71886943
_cell_formula_units_Z   4
loop_
 _symmetry_equiv_pos_site_id
 _symmetry_equiv_pos_as_xyz
  1  'x, y, z'
loop_
 _atom_site_type_symbol
 _atom_site_label
 _atom_site_symmetry_multiplicity
 _atom_site_fract_x
 _atom_site_fract_y
 _atom_site_fract_z
 _atom_site_occupancy
  Cu  Cu0  1  0.000000  0.737442  0.500000  1
  Cu  Cu1  1  0.500000  0.000000  0.737442  1
  Cu  Cu2  1  0.762558  0.762558  0.762558  1
  Cu  Cu3  1  0.737442  0.500000  1.000000  1
  H  H4  1  0.007702  0.471937  0.644048  1
  H  H5  1  0.327890  0.363654  0.855952  1
  H  H6  1  0.471937  0.644048  0.007702  1
  H  H7  1  0.035765  0.172110  0.028063  1
  H  H8  1  0.172110  0.028063  0.035765  1
  H  H9  1  0.464235  0.492298  0.136346  1
  H  H10  1  0.028063  0.035765  0.172110  1
  H  H11  1  0.363654  0.855952  0.327890  1
  H  H12  1  0.855952  0.327890  0.363654  1
  H  H13  1  0.492298  0.136346  0.464235  1
  H  H14  1  0.644048  0.007702  0.471937  1
  H  H15  1  0.136346  0.464235  0.492298  1
  N  N16  1  0.500000  0.000000  0.473733  1
  N  N17  1  0.000000  0.473733  0.500000  1
  N  N18  1  0.473733  0.500000  0.000000  1
  N  N19  1  0.026267  0.026267  0.026267  1
  Cl  Cl20  1  0.000000  0.030304  0.500000  1
  Cl  Cl21  1  0.030304  0.500000  0.000000  1
  Cl  Cl22  1  0.500000  0.000000  0.030304  1
  Cl  Cl23  1  0.469696  0.469696  0.469696  1
