# generated using pymatgen
data_Zr(PS3)2
_symmetry_space_group_name_H-M   'P 1'
_cell_length_a   6.91041959
_cell_length_b   6.91041959
_cell_length_c   9.53067335
_cell_angle_alpha   90.00000000
_cell_angle_beta   90.00000000
_cell_angle_gamma   90.00000000
_symmetry_Int_Tables_number   1
_chemical_formula_structural   Zr(PS3)2
_chemical_formula_sum   'Zr2 P4 S12'
_cell_volume   455.12681170
_cell_formula_units_Z   2
loop_
 _symmetry_equiv_pos_site_id
 _symmetry_equiv_pos_as_xyz
  1  'x, y, z'
loop_
 _atom_site_type_symbol
 _atom_site_label
 _atom_site_symmetry_multiplicity
 _atom_site_fract_x
 _atom_site_fract_y
 _atom_site_fract_z
 _atom_site_occupancy
  Zr  Zr0  1  0.000000  0.000000  0.750000  1
  Zr  Zr1  1  0.000000  0.000000  0.250000  1
  P  P2  1  0.656991  0.054934  0.000000  1
  P  P3  1  0.343009  0.945066  0.000000  1
  P  P4  1  0.054934  0.343009  0.500000  1
  P  P5  1  0.945066  0.656991  0.500000  1
  S  S6  1  0.203267  0.305672  0.680881  1
  S  S7  1  0.694328  0.203267  0.180881  1
  S  S8  1  0.158465  0.176886  0.000000  1
  S  S9  1  0.823114  0.158465  0.500000  1
  S  S10  1  0.176886  0.841535  0.500000  1
  S  S11  1  0.841535  0.823114  0.000000  1
  S  S12  1  0.203267  0.305672  0.319119  1
  S  S13  1  0.694328  0.203267  0.819119  1
  S  S14  1  0.305672  0.796733  0.819119  1
  S  S15  1  0.796733  0.694328  0.319119  1
  S  S16  1  0.796733  0.694328  0.680881  1
  S  S17  1  0.305672  0.796733  0.180881  1
