# generated using pymatgen
data_Li2V3SbO8
_symmetry_space_group_name_H-M   'P 1'
_cell_length_a   8.61757296
_cell_length_b   8.61757296
_cell_length_c   8.61757296
_cell_angle_alpha   90.00000000
_cell_angle_beta   90.00000000
_cell_angle_gamma   90.00000000
_symmetry_Int_Tables_number   1
_chemical_formula_structural   Li2V3SbO8
_chemical_formula_sum   'Li8 V12 Sb4 O32'
_cell_volume   639.96306184
_cell_formula_units_Z   4
loop_
 _symmetry_equiv_pos_site_id
 _symmetry_equiv_pos_as_xyz
  1  'x, y, z'
loop_
 _atom_site_type_symbol
 _atom_site_label
 _atom_site_symmetry_multiplicity
 _atom_site_fract_x
 _atom_site_fract_y
 _atom_site_fract_z
 _atom_site_occupancy
  Li  Li0  1  0.003422  0.003422  0.003422  1
  Li  Li1  1  0.246578  0.246578  0.246578  1
  Li  Li2  1  0.253422  0.753422  0.746578  1
  Li  Li3  1  0.496578  0.996578  0.503422  1
  Li  Li4  1  0.503422  0.496578  0.996578  1
  Li  Li5  1  0.746578  0.253422  0.753422  1
  Li  Li6  1  0.753422  0.746578  0.253422  1
  Li  Li7  1  0.996578  0.503422  0.496578  1
  V  V8  1  0.117878  0.132122  0.625000  1
  V  V9  1  0.125000  0.382122  0.867878  1
  V  V10  1  0.132122  0.625000  0.117878  1
  V  V11  1  0.367878  0.375000  0.617878  1
  V  V12  1  0.375000  0.617878  0.367878  1
  V  V13  1  0.382122  0.867878  0.125000  1
  V  V14  1  0.617878  0.367878  0.375000  1
  V  V15  1  0.625000  0.117878  0.132122  1
  V  V16  1  0.632122  0.875000  0.882122  1
  V  V17  1  0.867878  0.125000  0.382122  1
  V  V18  1  0.875000  0.882122  0.632122  1
  V  V19  1  0.882122  0.632122  0.875000  1
  Sb  Sb20  1  0.125000  0.875000  0.375000  1
  Sb  Sb21  1  0.375000  0.125000  0.875000  1
  Sb  Sb22  1  0.625000  0.625000  0.625000  1
  Sb  Sb23  1  0.875000  0.375000  0.125000  1
  O  O24  1  0.107370  0.109943  0.381769  1
  O  O25  1  0.118231  0.892630  0.609943  1
  O  O26  1  0.115828  0.615828  0.884172  1
  O  O27  1  0.140057  0.142630  0.868231  1
  O  O28  1  0.109943  0.381769  0.107370  1
  O  O29  1  0.134172  0.365828  0.634172  1
  O  O30  1  0.131769  0.640057  0.357370  1
  O  O31  1  0.142630  0.868231  0.140057  1
  O  O32  1  0.357370  0.131769  0.640057  1
  O  O33  1  0.368231  0.359943  0.857370  1
  O  O34  1  0.365828  0.634172  0.134172  1
  O  O35  1  0.390057  0.618231  0.607370  1
  O  O36  1  0.359943  0.857370  0.368231  1
  O  O37  1  0.384172  0.384172  0.384172  1
  O  O38  1  0.381769  0.107370  0.109943  1
  O  O39  1  0.392630  0.890057  0.881769  1
  O  O40  1  0.607370  0.390057  0.618231  1
  O  O41  1  0.618231  0.607370  0.390057  1
  O  O42  1  0.615828  0.884172  0.115828  1
  O  O43  1  0.640057  0.357370  0.131769  1
  O  O44  1  0.609943  0.118231  0.892630  1
  O  O45  1  0.634172  0.134172  0.365828  1
  O  O46  1  0.631769  0.859943  0.642630  1
  O  O47  1  0.642630  0.631769  0.859943  1
  O  O48  1  0.857370  0.368231  0.359943  1
  O  O49  1  0.868231  0.140057  0.142630  1
  O  O50  1  0.865828  0.865828  0.865828  1
  O  O51  1  0.890057  0.881769  0.392630  1
  O  O52  1  0.859943  0.642630  0.631769  1
  O  O53  1  0.884172  0.115828  0.615828  1
  O  O54  1  0.881769  0.392630  0.890057  1
  O  O55  1  0.892630  0.609943  0.118231  1
