# generated using pymatgen
data_Na6(NiO2)7
_symmetry_space_group_name_H-M   'P 1'
_cell_length_a   6.98543817
_cell_length_b   6.98543817
_cell_length_c   6.98543817
_cell_angle_alpha   67.90541446
_cell_angle_beta   67.90541446
_cell_angle_gamma   67.90541446
_symmetry_Int_Tables_number   1
_chemical_formula_structural   Na6(NiO2)7
_chemical_formula_sum   'Na6 Ni7 O14'
_cell_volume   281.49541750
_cell_formula_units_Z   1
loop_
 _symmetry_equiv_pos_site_id
 _symmetry_equiv_pos_as_xyz
  1  'x, y, z'
loop_
 _atom_site_type_symbol
 _atom_site_label
 _atom_site_symmetry_multiplicity
 _atom_site_fract_x
 _atom_site_fract_y
 _atom_site_fract_z
 _atom_site_occupancy
  Na  Na0  1  0.581116  0.134042  0.275588  1
  Na  Na1  1  0.724412  0.418884  0.865958  1
  Na  Na2  1  0.134042  0.275588  0.581116  1
  Na  Na3  1  0.865958  0.724412  0.418884  1
  Na  Na4  1  0.275588  0.581116  0.134042  1
  Na  Na5  1  0.418884  0.865958  0.724412  1
  Ni  Ni6  1  0.781198  0.076175  0.645651  1
  Ni  Ni7  1  0.923825  0.354349  0.218802  1
  Ni  Ni8  1  0.354349  0.218802  0.923825  1
  Ni  Ni9  1  0.500000  0.500000  0.500000  1
  Ni  Ni10  1  0.645651  0.781198  0.076175  1
  Ni  Ni11  1  0.076175  0.645651  0.781198  1
  Ni  Ni12  1  0.218802  0.923825  0.354349  1
  O  O13  1  0.648801  0.100422  0.933834  1
  O  O14  1  0.899578  0.066166  0.351199  1
  O  O15  1  0.784781  0.380217  0.531689  1
  O  O16  1  0.468311  0.215219  0.619783  1
  O  O17  1  0.769525  0.769525  0.769525  1
  O  O18  1  0.619783  0.468311  0.215219  1
  O  O19  1  0.380217  0.531689  0.784781  1
  O  O20  1  0.066166  0.351199  0.899578  1
  O  O21  1  0.933834  0.648801  0.100422  1
  O  O22  1  0.230475  0.230475  0.230475  1
  O  O23  1  0.215219  0.619783  0.468311  1
  O  O24  1  0.531689  0.784781  0.380217  1
  O  O25  1  0.100422  0.933834  0.648801  1
  O  O26  1  0.351199  0.899578  0.066166  1
