# generated using pymatgen
data_K4UO5
_symmetry_space_group_name_H-M   'P 1'
_cell_length_a   6.55850025
_cell_length_b   6.55987088
_cell_length_c   9.83636156
_cell_angle_alpha   101.65803176
_cell_angle_beta   108.82740116
_cell_angle_gamma   102.18483704
_symmetry_Int_Tables_number   1
_chemical_formula_structural   K4UO5
_chemical_formula_sum   'K8 U2 O10'
_cell_volume   374.45495523
_cell_formula_units_Z   2
loop_
 _symmetry_equiv_pos_site_id
 _symmetry_equiv_pos_as_xyz
  1  'x, y, z'
loop_
 _atom_site_type_symbol
 _atom_site_label
 _atom_site_symmetry_multiplicity
 _atom_site_fract_x
 _atom_site_fract_y
 _atom_site_fract_z
 _atom_site_occupancy
  K  K0  1  0.583551  0.796399  0.097573  1
  K  K1  1  0.205662  0.595298  0.699873  1
  K  K2  1  0.598678  0.296058  0.597176  1
  K  K3  1  0.401322  0.703942  0.402824  1
  K  K4  1  0.416449  0.203601  0.902427  1
  K  K5  1  0.000000  0.000000  0.500000  1
  K  K6  1  0.000000  0.500000  0.000000  1
  K  K7  1  0.794338  0.404702  0.300127  1
  U  U8  1  0.189477  0.100210  0.195449  1
  U  U9  1  0.810523  0.899790  0.804551  1
  O  O10  1  0.356147  0.371312  0.158410  1
  O  O11  1  0.643853  0.628688  0.841590  1
  O  O12  1  0.175915  0.295419  0.387218  1
  O  O13  1  0.824085  0.704581  0.612782  1
  O  O14  1  0.970552  0.169959  0.763719  1
  O  O15  1  0.029448  0.830041  0.236281  1
  O  O16  1  0.856751  0.104773  0.035228  1
  O  O17  1  0.143249  0.895227  0.964772  1
  O  O18  1  0.500273  0.940449  0.694876  1
  O  O19  1  0.499727  0.059551  0.305124  1
