# generated using pymatgen
data_Li4Co5O9F
_symmetry_space_group_name_H-M   'P 1'
_cell_length_a   2.87559158
_cell_length_b   5.13384101
_cell_length_c   13.05902232
_cell_angle_alpha   80.02330429
_cell_angle_beta   84.19088804
_cell_angle_gamma   74.06690091
_symmetry_Int_Tables_number   1
_chemical_formula_structural   Li4Co5O9F
_chemical_formula_sum   'Li4 Co5 O9 F1'
_cell_volume   182.28521203
_cell_formula_units_Z   1
loop_
 _symmetry_equiv_pos_site_id
 _symmetry_equiv_pos_as_xyz
  1  'x, y, z'
loop_
 _atom_site_type_symbol
 _atom_site_label
 _atom_site_symmetry_multiplicity
 _atom_site_fract_x
 _atom_site_fract_y
 _atom_site_fract_z
 _atom_site_occupancy
  Li  Li0  1  0.196152  0.003089  0.608456  1
  Li  Li1  1  0.405061  0.996260  0.192459  1
  Li  Li2  1  0.601529  0.980205  0.819214  1
  Li  Li3  1  0.793264  0.009016  0.400201  1
  Co  Co4  1  0.100920  0.499439  0.299870  1
  Co  Co5  1  0.309065  0.478594  0.896481  1
  Co  Co6  1  0.503713  0.508856  0.498759  1
  Co  Co7  1  0.682786  0.532290  0.100117  1
  Co  Co8  1  0.905836  0.510635  0.697671  1
  O  O9  1  0.139840  0.286338  0.438348  1
  O  O10  1  0.054089  0.721337  0.170709  1
  O  O11  1  0.242203  0.740331  0.744186  1
  O  O12  1  0.474343  0.712767  0.346395  1
  O  O13  1  0.555500  0.284003  0.640728  1
  O  O14  1  0.726351  0.283829  0.257648  1
  O  O15  1  0.932053  0.278874  0.841473  1
  O  O16  1  0.689172  0.674796  0.947543  1
  O  O17  1  0.856183  0.745113  0.542947  1
  F  F18  1  0.345185  0.246780  0.061738  1
