# generated using pymatgen
data_Li2MnSi4O11
_symmetry_space_group_name_H-M   'P 1'
_cell_length_a   7.16446858
_cell_length_b   7.16446858
_cell_length_c   8.27566837
_cell_angle_alpha   81.34355709
_cell_angle_beta   98.65644291
_cell_angle_gamma   96.28376090
_symmetry_Int_Tables_number   1
_chemical_formula_structural   Li2MnSi4O11
_chemical_formula_sum   'Li4 Mn2 Si8 O22'
_cell_volume   413.52357461
_cell_formula_units_Z   2
loop_
 _symmetry_equiv_pos_site_id
 _symmetry_equiv_pos_as_xyz
  1  'x, y, z'
loop_
 _atom_site_type_symbol
 _atom_site_label
 _atom_site_symmetry_multiplicity
 _atom_site_fract_x
 _atom_site_fract_y
 _atom_site_fract_z
 _atom_site_occupancy
  Li  Li0  1  0.919782  0.919782  0.250000  1
  Li  Li1  1  0.643351  0.643351  0.250000  1
  Li  Li2  1  0.356649  0.356649  0.750000  1
  Li  Li3  1  0.080218  0.080218  0.750000  1
  Mn  Mn4  1  0.000000  0.500000  0.500000  1
  Mn  Mn5  1  0.500000  1.000000  0.000000  1
  Si  Si6  1  0.662630  0.217466  0.338032  1
  Si  Si7  1  0.782534  0.337370  0.838032  1
  Si  Si8  1  0.253344  0.163403  0.433750  1
  Si  Si9  1  0.163403  0.253344  0.066250  1
  Si  Si10  1  0.836597  0.746656  0.933750  1
  Si  Si11  1  0.746656  0.836597  0.566250  1
  Si  Si12  1  0.217466  0.662630  0.161968  1
  Si  Si13  1  0.337370  0.782534  0.661968  1
  O  O14  1  0.763302  0.049097  0.467101  1
  O  O15  1  0.620928  0.148761  0.158958  1
  O  O16  1  0.950903  0.236698  0.967101  1
  O  O17  1  0.851239  0.379072  0.658958  1
  O  O18  1  0.805676  0.410509  0.326475  1
  O  O19  1  0.589491  0.194324  0.826475  1
  O  O20  1  0.466579  0.255106  0.407879  1
  O  O21  1  0.845882  0.720180  0.452625  1
  O  O22  1  0.744894  0.533421  0.907879  1
  O  O23  1  0.134039  0.134039  0.250000  1
  O  O24  1  0.720180  0.845882  0.047375  1
  O  O25  1  0.279820  0.154118  0.952625  1
  O  O26  1  0.865961  0.865961  0.750000  1
  O  O27  1  0.255106  0.466579  0.092121  1
  O  O28  1  0.154118  0.279820  0.547375  1
  O  O29  1  0.533421  0.744894  0.592121  1
  O  O30  1  0.410509  0.805676  0.173525  1
  O  O31  1  0.194324  0.589491  0.673525  1
  O  O32  1  0.148761  0.620928  0.341042  1
  O  O33  1  0.049097  0.763302  0.032899  1
  O  O34  1  0.379072  0.851239  0.841042  1
  O  O35  1  0.236698  0.950903  0.532899  1
