# generated using pymatgen
data_Ba9La5I33
_symmetry_space_group_name_H-M   'P 1'
_cell_length_a   13.16773008
_cell_length_b   13.21090534
_cell_length_c   25.17294702
_cell_angle_alpha   99.66576576
_cell_angle_beta   99.79060794
_cell_angle_gamma   108.82608182
_symmetry_Int_Tables_number   1
_chemical_formula_structural   Ba9La5I33
_chemical_formula_sum   'Ba18 La10 I66'
_cell_volume   3966.18296128
_cell_formula_units_Z   2
loop_
 _symmetry_equiv_pos_site_id
 _symmetry_equiv_pos_as_xyz
  1  'x, y, z'
loop_
 _atom_site_type_symbol
 _atom_site_label
 _atom_site_symmetry_multiplicity
 _atom_site_fract_x
 _atom_site_fract_y
 _atom_site_fract_z
 _atom_site_occupancy
  Ba  Ba0  1  0.922266  0.253663  0.928619  1
  Ba  Ba1  1  0.320593  0.094357  0.965476  1
  Ba  Ba2  1  0.473749  0.021172  0.194168  1
  Ba  Ba3  1  0.865700  0.262360  0.338067  1
  Ba  Ba4  1  0.249189  0.127987  0.376920  1
  Ba  Ba5  1  0.678005  0.399123  0.542188  1
  Ba  Ba6  1  0.077653  0.243980  0.566292  1
  Ba  Ba7  1  0.759476  0.359370  0.121655  1
  Ba  Ba8  1  0.138631  0.233005  0.159909  1
  Ba  Ba9  1  0.861369  0.766995  0.840091  1
  Ba  Ba10  1  0.240524  0.640630  0.878345  1
  Ba  Ba11  1  0.922347  0.756020  0.433708  1
  Ba  Ba12  1  0.321995  0.600877  0.457812  1
  Ba  Ba13  1  0.750811  0.872013  0.623080  1
  Ba  Ba14  1  0.134300  0.737640  0.661933  1
  Ba  Ba15  1  0.526251  0.978828  0.805832  1
  Ba  Ba16  1  0.679407  0.905643  0.034524  1
  Ba  Ba17  1  0.077734  0.746337  0.071381  1
  La  La18  1  0.380978  0.045477  0.585839  1
  La  La19  1  0.180353  0.141546  0.765189  1
  La  La20  1  0.855745  0.352150  0.733577  1
  La  La21  1  0.625056  0.456251  0.925946  1
  La  La22  1  0.463174  0.535730  0.686682  1
  La  La23  1  0.536826  0.464270  0.313318  1
  La  La24  1  0.374944  0.543749  0.074054  1
  La  La25  1  0.144255  0.647850  0.266423  1
  La  La26  1  0.819647  0.858454  0.234811  1
  La  La27  1  0.619022  0.954523  0.414161  1
  I  I28  1  0.771527  0.139556  0.784072  1
  I  I29  1  0.949643  0.153593  0.675491  1
  I  I30  1  0.620874  0.209170  0.919567  1
  I  I31  1  0.741427  0.045775  0.194027  1
  I  I32  1  0.161398  0.016053  0.637090  1
  I  I33  1  0.061075  0.076407  0.873982  1
  I  I34  1  0.654333  0.185243  0.627780  1
  I  I35  1  0.444926  0.184904  0.739280  1
  I  I36  1  0.810522  0.223574  0.475708  1
  I  I37  1  0.582098  0.114754  0.338548  1
  I  I38  1  0.478754  0.118854  0.474165  1
  I  I39  1  0.157903  0.037688  0.487316  1
  I  I40  1  0.356008  0.298378  0.879266  1
  I  I41  1  0.886246  0.183955  0.060637  1
  I  I42  1  0.820299  0.455598  0.855912  1
  I  I43  1  0.552560  0.105808  0.072537  1
  I  I44  1  0.946556  0.429818  0.627223  1
  I  I45  1  0.242277  0.037691  0.093701  1
  I  I46  1  0.397058  0.302533  0.589440  1
  I  I47  1  0.980255  0.379188  0.225751  1
  I  I48  1  0.352187  0.210341  0.263210  1
  I  I49  1  0.656982  0.316324  0.240764  1
  I  I50  1  0.034328  0.118894  0.274861  1
  I  I51  1  0.251828  0.358964  0.711333  1
  I  I52  1  0.705367  0.502254  0.693586  1
  I  I53  1  0.075351  0.354506  0.822421  1
  I  I54  1  0.751475  0.465077  0.405513  1
  I  I55  1  0.567753  0.560648  0.821465  1
  I  I56  1  0.450775  0.393969  0.424328  1
  I  I57  1  0.797893  0.713576  0.969938  1
  I  I58  1  0.471540  0.610381  0.964626  1
  I  I59  1  0.124825  0.318317  0.437005  1
  I  I60  1  0.147031  0.529614  0.983597  1
  I  I61  1  0.852969  0.470386  0.016403  1
  I  I62  1  0.875175  0.681683  0.562995  1
  I  I63  1  0.528460  0.389619  0.035374  1
  I  I64  1  0.202107  0.286424  0.030062  1
  I  I65  1  0.549225  0.606031  0.575672  1
  I  I66  1  0.432247  0.439352  0.178535  1
  I  I67  1  0.248525  0.534923  0.594487  1
  I  I68  1  0.924649  0.645494  0.177579  1
  I  I69  1  0.294633  0.497746  0.306414  1
  I  I70  1  0.748172  0.641036  0.288667  1
  I  I71  1  0.965672  0.881106  0.725139  1
  I  I72  1  0.343018  0.683676  0.759236  1
  I  I73  1  0.647813  0.789659  0.736790  1
  I  I74  1  0.019745  0.620812  0.774249  1
  I  I75  1  0.602942  0.697467  0.410560  1
  I  I76  1  0.757723  0.962309  0.906299  1
  I  I77  1  0.053444  0.570182  0.372777  1
  I  I78  1  0.447440  0.894192  0.927463  1
  I  I79  1  0.179701  0.544402  0.144088  1
  I  I80  1  0.113754  0.816045  0.939363  1
  I  I81  1  0.643992  0.701622  0.120734  1
  I  I82  1  0.842097  0.962312  0.512684  1
  I  I83  1  0.521246  0.881146  0.525835  1
  I  I84  1  0.417902  0.885246  0.661452  1
  I  I85  1  0.189478  0.776426  0.524292  1
  I  I86  1  0.555074  0.815096  0.260720  1
  I  I87  1  0.345667  0.814757  0.372220  1
  I  I88  1  0.938925  0.923593  0.126018  1
  I  I89  1  0.838602  0.983947  0.362910  1
  I  I90  1  0.258573  0.954225  0.805973  1
  I  I91  1  0.379126  0.790830  0.080433  1
  I  I92  1  0.050357  0.846407  0.324509  1
  I  I93  1  0.228473  0.860444  0.215928  1
