# generated using pymatgen
data_CeAu3
_symmetry_space_group_name_H-M   'P 1'
_cell_length_a   6.48134134
_cell_length_b   6.48134134
_cell_length_c   4.80725761
_cell_angle_alpha   90.00000000
_cell_angle_beta   90.00000000
_cell_angle_gamma   120.00000000
_symmetry_Int_Tables_number   1
_chemical_formula_structural   CeAu3
_chemical_formula_sum   'Ce2 Au6'
_cell_volume   174.88711601
_cell_formula_units_Z   2
loop_
 _symmetry_equiv_pos_site_id
 _symmetry_equiv_pos_as_xyz
  1  'x, y, z'
loop_
 _atom_site_type_symbol
 _atom_site_label
 _atom_site_symmetry_multiplicity
 _atom_site_fract_x
 _atom_site_fract_y
 _atom_site_fract_z
 _atom_site_occupancy
  Ce  Ce0  1  0.333333  0.666667  0.750000  1
  Ce  Ce1  1  0.666667  0.333333  0.250000  1
  Au  Au2  1  0.156988  0.313976  0.250000  1
  Au  Au3  1  0.686024  0.843012  0.250000  1
  Au  Au4  1  0.156988  0.843012  0.250000  1
  Au  Au5  1  0.843012  0.686024  0.750000  1
  Au  Au6  1  0.313976  0.156988  0.750000  1
  Au  Au7  1  0.843012  0.156988  0.750000  1
