# generated using pymatgen
data_Li4NbFe(WO6)2
_symmetry_space_group_name_H-M   'P 1'
_cell_length_a   5.18727612
_cell_length_b   5.48902140
_cell_length_c   7.57536055
_cell_angle_alpha   94.37300829
_cell_angle_beta   90.09449825
_cell_angle_gamma   90.06822637
_symmetry_Int_Tables_number   1
_chemical_formula_structural   Li4NbFe(WO6)2
_chemical_formula_sum   'Li4 Nb1 Fe1 W2 O12'
_cell_volume   215.06535745
_cell_formula_units_Z   1
loop_
 _symmetry_equiv_pos_site_id
 _symmetry_equiv_pos_as_xyz
  1  'x, y, z'
loop_
 _atom_site_type_symbol
 _atom_site_label
 _atom_site_symmetry_multiplicity
 _atom_site_fract_x
 _atom_site_fract_y
 _atom_site_fract_z
 _atom_site_occupancy
  Li  Li0  1  0.000085  0.410273  0.270862  1
  Li  Li1  1  0.497881  0.938328  0.805469  1
  Li  Li2  1  0.995426  0.421873  0.805425  1
  Li  Li3  1  0.504460  0.975753  0.248493  1
  Nb  Nb4  1  0.501591  0.482104  0.512980  1
  Fe  Fe5  1  0.998844  0.990208  0.001343  1
  W  W6  1  0.996792  0.980632  0.499484  1
  W  W7  1  0.505028  0.501510  0.010037  1
  O  O8  1  0.307300  0.194086  0.430655  1
  O  O9  1  0.120296  0.016490  0.733597  1
  O  O10  1  0.319617  0.812037  0.045581  1
  O  O11  1  0.181195  0.695393  0.430478  1
  O  O12  1  0.790831  0.698809  0.929205  1
  O  O13  1  0.374389  0.509766  0.747741  1
  O  O14  1  0.622713  0.517158  0.247923  1
  O  O15  1  0.198471  0.321803  0.049142  1
  O  O16  1  0.820734  0.320765  0.555229  1
  O  O17  1  0.695293  0.214408  0.933967  1
  O  O18  1  0.884727  0.029880  0.258116  1
  O  O19  1  0.684324  0.826327  0.555471  1
