# generated using pymatgen
data_LiCr3(P3O10)2
_symmetry_space_group_name_H-M   'P 1'
_cell_length_a   8.53928863
_cell_length_b   8.53928863
_cell_length_c   12.59326712
_cell_angle_alpha   90.00000000
_cell_angle_beta   90.00000000
_cell_angle_gamma   106.64519453
_symmetry_Int_Tables_number   1
_chemical_formula_structural   LiCr3(P3O10)2
_chemical_formula_sum   'Li2 Cr6 P12 O40'
_cell_volume   879.81477021
_cell_formula_units_Z   2
loop_
 _symmetry_equiv_pos_site_id
 _symmetry_equiv_pos_as_xyz
  1  'x, y, z'
loop_
 _atom_site_type_symbol
 _atom_site_label
 _atom_site_symmetry_multiplicity
 _atom_site_fract_x
 _atom_site_fract_y
 _atom_site_fract_z
 _atom_site_occupancy
  Li  Li0  1  0.107457  0.107457  0.000000  1
  Li  Li1  1  0.607457  0.607457  0.500000  1
  Cr  Cr2  1  0.388613  0.388613  0.000000  1
  Cr  Cr3  1  0.769980  0.324036  0.782541  1
  Cr  Cr4  1  0.824036  0.269980  0.282541  1
  Cr  Cr5  1  0.324036  0.769980  0.217459  1
  Cr  Cr6  1  0.269980  0.824036  0.717459  1
  Cr  Cr7  1  0.888613  0.888613  0.500000  1
  P  P8  1  0.403625  0.133668  0.304011  1
  P  P9  1  0.133668  0.403625  0.695989  1
  P  P10  1  0.364092  0.227785  0.783511  1
  P  P11  1  0.227785  0.364092  0.216489  1
  P  P12  1  0.371508  0.753645  0.949199  1
  P  P13  1  0.253645  0.871508  0.449199  1
  P  P14  1  0.871508  0.253645  0.550801  1
  P  P15  1  0.753645  0.371508  0.050801  1
  P  P16  1  0.903625  0.633668  0.195989  1
  P  P17  1  0.633668  0.903625  0.804011  1
  P  P18  1  0.864092  0.727785  0.716489  1
  P  P19  1  0.727785  0.864092  0.283511  1
  O  O20  1  0.006095  0.321076  0.777114  1
  O  O21  1  0.321076  0.006095  0.222886  1
  O  O22  1  0.349555  0.063443  0.737068  1
  O  O23  1  0.063443  0.349555  0.262932  1
  O  O24  1  0.060119  0.357126  0.578280  1
  O  O25  1  0.357126  0.060119  0.421720  1
  O  O26  1  0.272631  0.222936  0.892889  1
  O  O27  1  0.222936  0.272631  0.107111  1
  O  O28  1  0.318111  0.277785  0.302072  1
  O  O29  1  0.277785  0.318111  0.697928  1
  O  O30  1  0.710343  0.083303  0.801316  1
  O  O31  1  0.210343  0.583303  0.698684  1
  O  O32  1  0.083303  0.710343  0.198684  1
  O  O33  1  0.583303  0.210343  0.301316  1
  O  O34  1  0.338253  0.537915  0.202409  1
  O  O35  1  0.537915  0.338253  0.797591  1
  O  O36  1  0.037915  0.838253  0.702409  1
  O  O37  1  0.838253  0.037915  0.297591  1
  O  O38  1  0.366006  0.572455  0.927130  1
  O  O39  1  0.072455  0.866006  0.427130  1
  O  O40  1  0.866006  0.072455  0.572870  1
  O  O41  1  0.572455  0.366006  0.072870  1
  O  O42  1  0.305157  0.754772  0.374553  1
  O  O43  1  0.805157  0.254772  0.125447  1
  O  O44  1  0.754772  0.305157  0.625447  1
  O  O45  1  0.254772  0.805157  0.874553  1
  O  O46  1  0.294622  0.846542  0.561841  1
  O  O47  1  0.794622  0.346542  0.938159  1
  O  O48  1  0.846542  0.294622  0.438159  1
  O  O49  1  0.346542  0.794622  0.061841  1
  O  O50  1  0.821076  0.506095  0.277114  1
  O  O51  1  0.506095  0.821076  0.722886  1
  O  O52  1  0.849555  0.563443  0.762932  1
  O  O53  1  0.563443  0.849555  0.237068  1
  O  O54  1  0.560119  0.857126  0.921720  1
  O  O55  1  0.857126  0.560119  0.078280  1
  O  O56  1  0.722936  0.772631  0.392889  1
  O  O57  1  0.772631  0.722936  0.607111  1
  O  O58  1  0.777785  0.818111  0.802072  1
  O  O59  1  0.818111  0.777785  0.197928  1
