# generated using pymatgen
data_Li5Mn6(BO3)6
_symmetry_space_group_name_H-M   'P 1'
_cell_length_a   8.85952499
_cell_length_b   8.85952499
_cell_length_c   14.35294043
_cell_angle_alpha   89.53438916
_cell_angle_beta   90.46561084
_cell_angle_gamma   137.87124169
_symmetry_Int_Tables_number   1
_chemical_formula_structural   Li5Mn6(BO3)6
_chemical_formula_sum   'Li10 Mn12 B12 O36'
_cell_volume   755.67954186
_cell_formula_units_Z   2
loop_
 _symmetry_equiv_pos_site_id
 _symmetry_equiv_pos_as_xyz
  1  'x, y, z'
loop_
 _atom_site_type_symbol
 _atom_site_label
 _atom_site_symmetry_multiplicity
 _atom_site_fract_x
 _atom_site_fract_y
 _atom_site_fract_z
 _atom_site_occupancy
  Li  Li0  1  0.894962  0.105038  0.007983  1
  Li  Li1  1  0.395103  0.604897  0.009039  1
  Li  Li2  1  0.421160  0.578840  0.640341  1
  Li  Li3  1  0.434209  0.565791  0.350174  1
  Li  Li4  1  0.934358  0.065642  0.350636  1
  Li  Li5  1  0.144696  0.855304  0.507826  1
  Li  Li6  1  0.645376  0.354624  0.509154  1
  Li  Li7  1  0.171124  0.828876  0.140332  1
  Li  Li8  1  0.184054  0.815946  0.851486  1
  Li  Li9  1  0.684514  0.315486  0.849089  1
  Mn  Mn10  1  0.066620  0.429182  0.498870  1
  Mn  Mn11  1  0.570818  0.933380  0.498870  1
  Mn  Mn12  1  0.079813  0.413716  0.184903  1
  Mn  Mn13  1  0.586284  0.920187  0.184903  1
  Mn  Mn14  1  0.600517  0.905054  0.816011  1
  Mn  Mn15  1  0.094946  0.399483  0.816011  1
  Mn  Mn16  1  0.321047  0.183450  0.998736  1
  Mn  Mn17  1  0.816550  0.678953  0.998736  1
  Mn  Mn18  1  0.329607  0.163726  0.684781  1
  Mn  Mn19  1  0.836274  0.670393  0.684781  1
  Mn  Mn20  1  0.349918  0.154293  0.315990  1
  Mn  Mn21  1  0.845707  0.650082  0.315990  1
  B  B22  1  0.005292  0.503509  0.997737  1
  B  B23  1  0.496491  0.994708  0.997737  1
  B  B24  1  0.249400  0.750600  0.666606  1
  B  B25  1  0.746350  0.253650  0.668378  1
  B  B26  1  0.249889  0.750111  0.334253  1
  B  B27  1  0.752291  0.247709  0.335875  1
  B  B28  1  0.255108  0.253306  0.497670  1
  B  B29  1  0.746694  0.744892  0.497670  1
  B  B30  1  0.002366  0.997634  0.835961  1
  B  B31  1  0.499699  0.500301  0.834332  1
  B  B32  1  0.999103  0.000897  0.166719  1
  B  B33  1  0.496701  0.503299  0.168267  1
  O  O34  1  0.755256  0.244744  0.572313  1
  O  O35  1  0.255400  0.744600  0.570107  1
  O  O36  1  0.761699  0.238301  0.240704  1
  O  O37  1  0.256893  0.743107  0.237520  1
  O  O38  1  0.318004  0.681996  0.391159  1
  O  O39  1  0.820049  0.179951  0.394901  1
  O  O40  1  0.319791  0.680209  0.720610  1
  O  O41  1  0.812168  0.187832  0.728120  1
  O  O42  1  0.077648  0.421740  0.039218  1
  O  O43  1  0.578260  0.922352  0.039218  1
  O  O44  1  0.422470  0.577530  0.873439  1
  O  O45  1  0.924503  0.075497  0.873767  1
  O  O46  1  0.419248  0.580752  0.205916  1
  O  O47  1  0.924197  0.075803  0.209341  1
  O  O48  1  0.202362  0.336049  0.551580  1
  O  O49  1  0.663951  0.797638  0.551580  1
  O  O50  1  0.746623  0.757832  0.400210  1
  O  O51  1  0.242168  0.253377  0.400210  1
  O  O52  1  0.505960  0.494040  0.072019  1
  O  O53  1  0.004756  0.995244  0.070438  1
  O  O54  1  0.011814  0.988186  0.740666  1
  O  O55  1  0.506778  0.493222  0.737748  1
  O  O56  1  0.069852  0.930148  0.894940  1
  O  O57  1  0.568109  0.431891  0.891288  1
  O  O58  1  0.069672  0.930328  0.220516  1
  O  O59  1  0.562201  0.437799  0.228351  1
  O  O60  1  0.327714  0.171754  0.539156  1
  O  O61  1  0.828246  0.672286  0.539156  1
  O  O62  1  0.172438  0.827562  0.373007  1
  O  O63  1  0.674596  0.325404  0.374076  1
  O  O64  1  0.174414  0.825586  0.708847  1
  O  O65  1  0.669013  0.330987  0.706473  1
  O  O66  1  0.951711  0.585457  0.051704  1
  O  O67  1  0.414543  0.048289  0.051704  1
  O  O68  1  0.495528  0.006892  0.900268  1
  O  O69  1  0.993108  0.504472  0.900268  1
