# generated using pymatgen
data_Rb2PtF6
_symmetry_space_group_name_H-M   'P 1'
_cell_length_a   6.08908327
_cell_length_b   6.08908327
_cell_length_c   4.95276353
_cell_angle_alpha   90.00000000
_cell_angle_beta   90.00000000
_cell_angle_gamma   120.00000000
_symmetry_Int_Tables_number   1
_chemical_formula_structural   Rb2PtF6
_chemical_formula_sum   'Rb2 Pt1 F6'
_cell_volume   159.03109545
_cell_formula_units_Z   1
loop_
 _symmetry_equiv_pos_site_id
 _symmetry_equiv_pos_as_xyz
  1  'x, y, z'
loop_
 _atom_site_type_symbol
 _atom_site_label
 _atom_site_symmetry_multiplicity
 _atom_site_fract_x
 _atom_site_fract_y
 _atom_site_fract_z
 _atom_site_occupancy
  Rb  Rb0  1  0.333333  0.666667  0.712369  1
  Rb  Rb1  1  0.666667  0.333333  0.287631  1
  Pt  Pt2  1  0.000000  0.000000  0.000000  1
  F  F3  1  0.842451  0.157549  0.782591  1
  F  F4  1  0.842451  0.684902  0.782591  1
  F  F5  1  0.315098  0.157549  0.782591  1
  F  F6  1  0.157549  0.842451  0.217409  1
  F  F7  1  0.157549  0.315098  0.217409  1
  F  F8  1  0.684902  0.842451  0.217409  1
