# generated using pymatgen
data_Cs2SnAs2
_symmetry_space_group_name_H-M   'P 1'
_cell_length_a   9.16066786
_cell_length_b   9.16066786
_cell_length_c   9.16066786
_cell_angle_alpha   134.49828804
_cell_angle_beta   128.85209737
_cell_angle_gamma   70.84043270
_symmetry_Int_Tables_number   1
_chemical_formula_structural   Cs2SnAs2
_chemical_formula_sum   'Cs4 Sn2 As4'
_cell_volume   418.32875801
_cell_formula_units_Z   2
loop_
 _symmetry_equiv_pos_site_id
 _symmetry_equiv_pos_as_xyz
  1  'x, y, z'
loop_
 _atom_site_type_symbol
 _atom_site_label
 _atom_site_symmetry_multiplicity
 _atom_site_fract_x
 _atom_site_fract_y
 _atom_site_fract_z
 _atom_site_occupancy
  Cs  Cs0  1  0.981230  0.145195  0.836035  1
  Cs  Cs1  1  0.018770  0.854805  0.163965  1
  Cs  Cs2  1  0.690840  0.354805  0.336035  1
  Cs  Cs3  1  0.309160  0.645195  0.663965  1
  Sn  Sn4  1  0.500000  0.250000  0.750000  1
  Sn  Sn5  1  0.500000  0.750000  0.250000  1
  As  As6  1  0.228362  0.401008  0.827354  1
  As  As7  1  0.771638  0.598992  0.172646  1
  As  As8  1  0.426346  0.098992  0.327354  1
  As  As9  1  0.573654  0.901008  0.672646  1
