# generated using pymatgen
data_Li2Si4(NiO4)3
_symmetry_space_group_name_H-M   'P 1'
_cell_length_a   7.48123820
_cell_length_b   9.93766881
_cell_length_c   13.32537814
_cell_angle_alpha   90.00000000
_cell_angle_beta   90.00000000
_cell_angle_gamma   90.00000000
_symmetry_Int_Tables_number   1
_chemical_formula_structural   Li2Si4(NiO4)3
_chemical_formula_sum   'Li8 Si16 Ni12 O48'
_cell_volume   990.68946293
_cell_formula_units_Z   4
loop_
 _symmetry_equiv_pos_site_id
 _symmetry_equiv_pos_as_xyz
  1  'x, y, z'
loop_
 _atom_site_type_symbol
 _atom_site_label
 _atom_site_symmetry_multiplicity
 _atom_site_fract_x
 _atom_site_fract_y
 _atom_site_fract_z
 _atom_site_occupancy
  Li  Li0  1  0.043235  0.750000  0.144168  1
  Li  Li1  1  0.232831  0.750000  0.497287  1
  Li  Li2  1  0.267169  0.250000  0.997287  1
  Li  Li3  1  0.456765  0.250000  0.644168  1
  Li  Li4  1  0.543235  0.750000  0.355832  1
  Li  Li5  1  0.732831  0.750000  0.002713  1
  Li  Li6  1  0.767169  0.250000  0.502713  1
  Li  Li7  1  0.956765  0.250000  0.855832  1
  Si  Si8  1  0.183118  0.037031  0.617709  1
  Si  Si9  1  0.183118  0.462969  0.617709  1
  Si  Si10  1  0.220099  0.537355  0.335523  1
  Si  Si11  1  0.220099  0.962645  0.335523  1
  Si  Si12  1  0.279901  0.462645  0.835523  1
  Si  Si13  1  0.279901  0.037355  0.835523  1
  Si  Si14  1  0.316882  0.537031  0.117709  1
  Si  Si15  1  0.316882  0.962969  0.117709  1
  Si  Si16  1  0.683118  0.037031  0.882291  1
  Si  Si17  1  0.683118  0.462969  0.882291  1
  Si  Si18  1  0.720099  0.537355  0.164477  1
  Si  Si19  1  0.720099  0.962645  0.164477  1
  Si  Si20  1  0.779901  0.037355  0.664477  1
  Si  Si21  1  0.779901  0.462645  0.664477  1
  Si  Si22  1  0.816882  0.537031  0.382291  1
  Si  Si23  1  0.816882  0.962969  0.382291  1
  Ni  Ni24  1  0.000000  0.000000  0.000000  1
  Ni  Ni25  1  0.000000  0.500000  0.000000  1
  Ni  Ni26  1  0.236413  0.750000  0.714616  1
  Ni  Ni27  1  0.241278  0.750000  0.929005  1
  Ni  Ni28  1  0.258722  0.250000  0.429005  1
  Ni  Ni29  1  0.263587  0.250000  0.214616  1
  Ni  Ni30  1  0.500000  0.000000  0.500000  1
  Ni  Ni31  1  0.500000  0.500000  0.500000  1
  Ni  Ni32  1  0.736413  0.750000  0.785384  1
  Ni  Ni33  1  0.741278  0.750000  0.570995  1
  Ni  Ni34  1  0.758722  0.250000  0.070995  1
  Ni  Ni35  1  0.763587  0.250000  0.285384  1
  O  O36  1  0.027758  0.583150  0.385539  1
  O  O37  1  0.027758  0.916850  0.385539  1
  O  O38  1  0.124698  0.105202  0.903753  1
  O  O39  1  0.124698  0.394798  0.903753  1
  O  O40  1  0.213064  0.877095  0.611838  1
  O  O41  1  0.213064  0.622905  0.611838  1
  O  O42  1  0.208019  0.610527  0.024989  1
  O  O43  1  0.208019  0.889473  0.024989  1
  O  O44  1  0.237407  0.126229  0.323051  1
  O  O45  1  0.237407  0.373771  0.323051  1
  O  O46  1  0.225780  0.601782  0.220947  1
  O  O47  1  0.225780  0.898218  0.220947  1
  O  O48  1  0.274220  0.101782  0.720947  1
  O  O49  1  0.274220  0.398218  0.720947  1
  O  O50  1  0.262593  0.626229  0.823051  1
  O  O51  1  0.262593  0.873771  0.823051  1
  O  O52  1  0.291981  0.110527  0.524989  1
  O  O53  1  0.291981  0.389473  0.524989  1
  O  O54  1  0.286936  0.377095  0.111838  1
  O  O55  1  0.286936  0.122905  0.111838  1
  O  O56  1  0.375302  0.605202  0.403753  1
  O  O57  1  0.375302  0.894798  0.403753  1
  O  O58  1  0.472242  0.083150  0.885539  1
  O  O59  1  0.472242  0.416850  0.885539  1
  O  O60  1  0.527758  0.916850  0.114461  1
  O  O61  1  0.527758  0.583150  0.114461  1
  O  O62  1  0.624698  0.105202  0.596247  1
  O  O63  1  0.624698  0.394798  0.596247  1
  O  O64  1  0.713064  0.622905  0.888162  1
  O  O65  1  0.713064  0.877095  0.888162  1
  O  O66  1  0.708019  0.610527  0.475011  1
  O  O67  1  0.708019  0.889473  0.475011  1
  O  O68  1  0.737407  0.126229  0.176949  1
  O  O69  1  0.737407  0.373771  0.176949  1
  O  O70  1  0.725780  0.601782  0.279053  1
  O  O71  1  0.725780  0.898218  0.279053  1
  O  O72  1  0.774220  0.101782  0.779053  1
  O  O73  1  0.774220  0.398218  0.779053  1
  O  O74  1  0.762593  0.626229  0.676949  1
  O  O75  1  0.762593  0.873771  0.676949  1
  O  O76  1  0.791981  0.110527  0.975011  1
  O  O77  1  0.791981  0.389473  0.975011  1
  O  O78  1  0.786936  0.122905  0.388162  1
  O  O79  1  0.786936  0.377095  0.388162  1
  O  O80  1  0.875302  0.605202  0.096247  1
  O  O81  1  0.875302  0.894798  0.096247  1
  O  O82  1  0.972242  0.083150  0.614461  1
  O  O83  1  0.972242  0.416850  0.614461  1
