# generated using pymatgen
data_CoMoH2SeO7
_symmetry_space_group_name_H-M   'P 1'
_cell_length_a   5.03920332
_cell_length_b   6.69550520
_cell_length_c   8.94114593
_cell_angle_alpha   91.89499883
_cell_angle_beta   97.56973147
_cell_angle_gamma   110.06874385
_symmetry_Int_Tables_number   1
_chemical_formula_structural   CoMoH2SeO7
_chemical_formula_sum   'Co2 Mo2 H4 Se2 O14'
_cell_volume   279.89355795
_cell_formula_units_Z   2
loop_
 _symmetry_equiv_pos_site_id
 _symmetry_equiv_pos_as_xyz
  1  'x, y, z'
loop_
 _atom_site_type_symbol
 _atom_site_label
 _atom_site_symmetry_multiplicity
 _atom_site_fract_x
 _atom_site_fract_y
 _atom_site_fract_z
 _atom_site_occupancy
  Co  Co0  1  0.500000  0.000000  0.000000  1
  Co  Co1  1  0.000000  0.500000  0.500000  1
  Mo  Mo2  1  0.208468  0.407482  0.104621  1
  Mo  Mo3  1  0.791532  0.592518  0.895379  1
  H  H4  1  0.617822  0.140583  0.357788  1
  H  H5  1  0.456860  0.243463  0.476336  1
  H  H6  1  0.543140  0.756537  0.523664  1
  H  H7  1  0.382178  0.859417  0.642212  1
  Se  Se8  1  0.866023  0.818653  0.260887  1
  Se  Se9  1  0.133977  0.181347  0.739113  1
  O  O10  1  0.165087  0.692042  0.011550  1
  O  O11  1  0.268044  0.160852  0.105310  1
  O  O12  1  0.635669  0.586334  0.130007  1
  O  O13  1  0.669597  0.979424  0.224137  1
  O  O14  1  0.146627  0.462104  0.287700  1
  O  O15  1  0.636022  0.256390  0.435436  1
  O  O16  1  0.801077  0.731590  0.432782  1
  O  O17  1  0.198923  0.268410  0.567218  1
  O  O18  1  0.363978  0.743610  0.564564  1
  O  O19  1  0.853373  0.537896  0.712300  1
  O  O20  1  0.330403  0.020576  0.775863  1
  O  O21  1  0.364331  0.413666  0.869993  1
  O  O22  1  0.731956  0.839148  0.894690  1
  O  O23  1  0.834913  0.307958  0.988450  1
