# generated using pymatgen
data_CaSiPt
_symmetry_space_group_name_H-M   'P 1'
_cell_length_a   4.37252322
_cell_length_b   7.17413185
_cell_length_c   7.25998306
_cell_angle_alpha   90.00000000
_cell_angle_beta   90.00000000
_cell_angle_gamma   90.00000000
_symmetry_Int_Tables_number   1
_chemical_formula_structural   CaSiPt
_chemical_formula_sum   'Ca4 Si4 Pt4'
_cell_volume   227.73883040
_cell_formula_units_Z   4
loop_
 _symmetry_equiv_pos_site_id
 _symmetry_equiv_pos_as_xyz
  1  'x, y, z'
loop_
 _atom_site_type_symbol
 _atom_site_label
 _atom_site_symmetry_multiplicity
 _atom_site_fract_x
 _atom_site_fract_y
 _atom_site_fract_z
 _atom_site_occupancy
  Ca  Ca0  1  0.750000  0.505740  0.811004  1
  Ca  Ca1  1  0.250000  0.994260  0.311004  1
  Ca  Ca2  1  0.750000  0.005740  0.688996  1
  Ca  Ca3  1  0.250000  0.494260  0.188996  1
  Si  Si4  1  0.250000  0.826096  0.918127  1
  Si  Si5  1  0.250000  0.326096  0.581873  1
  Si  Si6  1  0.750000  0.173904  0.081873  1
  Si  Si7  1  0.750000  0.673904  0.418127  1
  Pt  Pt8  1  0.250000  0.690686  0.597032  1
  Pt  Pt9  1  0.250000  0.190686  0.902968  1
  Pt  Pt10  1  0.750000  0.809314  0.097032  1
  Pt  Pt11  1  0.750000  0.309314  0.402968  1
