# generated using pymatgen
data_Ta8Cr3O24
_symmetry_space_group_name_H-M   'P 1'
_cell_length_a   10.44170013
_cell_length_b   10.44170013
_cell_length_c   10.44170013
_cell_angle_alpha   142.33612501
_cell_angle_beta   142.14644634
_cell_angle_gamma   54.46566380
_symmetry_Int_Tables_number   1
_chemical_formula_structural   Ta8Cr3O24
_chemical_formula_sum   'Ta8 Cr3 O24'
_cell_volume   423.93763916
_cell_formula_units_Z   1
loop_
 _symmetry_equiv_pos_site_id
 _symmetry_equiv_pos_as_xyz
  1  'x, y, z'
loop_
 _atom_site_type_symbol
 _atom_site_label
 _atom_site_symmetry_multiplicity
 _atom_site_fract_x
 _atom_site_fract_y
 _atom_site_fract_z
 _atom_site_occupancy
  Ta  Ta0  1  0.323964  0.823964  0.500000  1
  Ta  Ta1  1  0.152531  0.652531  0.500000  1
  Ta  Ta2  1  0.500490  0.000490  0.500000  1
  Ta  Ta3  1  0.084317  0.084317  0.000000  1
  Ta  Ta4  1  0.914793  0.914793  0.000000  1
  Ta  Ta5  1  0.422688  0.422688  0.000000  1
  Ta  Ta6  1  0.834582  0.334582  0.500000  1
  Ta  Ta7  1  0.672139  0.172139  0.500000  1
  Cr  Cr8  1  0.252752  0.252752  0.000000  1
  Cr  Cr9  1  0.742825  0.742825  0.000000  1
  Cr  Cr10  1  0.000087  0.500087  0.500000  1
  O  O11  1  0.489348  0.275082  0.785734  1
  O  O12  1  0.999845  0.809369  0.809524  1
  O  O13  1  0.164390  0.971063  0.806673  1
  O  O14  1  0.273058  0.582350  0.690709  1
  O  O15  1  0.447837  0.751348  0.696488  1
  O  O16  1  0.054860  0.751348  0.303512  1
  O  O17  1  0.891641  0.582350  0.309291  1
  O  O18  1  0.383885  0.081264  0.302621  1
  O  O19  1  0.217355  0.916096  0.301259  1
  O  O20  1  0.336093  0.537012  0.200919  1
  O  O21  1  0.678555  0.898018  0.219463  1
  O  O22  1  0.164390  0.357718  0.193327  1
  O  O23  1  0.336093  0.135175  0.799081  1
  O  O24  1  0.837459  0.639122  0.801663  1
  O  O25  1  0.678555  0.459092  0.780537  1
  O  O26  1  0.778643  0.081264  0.697379  1
  O  O27  1  0.614837  0.916096  0.698741  1
  O  O28  1  0.115172  0.415032  0.700140  1
  O  O29  1  0.951623  0.255855  0.695768  1
  O  O30  1  0.560087  0.255855  0.304232  1
  O  O31  1  0.714892  0.415032  0.299860  1
  O  O32  1  0.837459  0.035796  0.198337  1
  O  O33  1  0.999845  0.190321  0.190476  1
  O  O34  1  0.489348  0.703614  0.214266  1
