# generated using pymatgen
data_LiCrPO5
_symmetry_space_group_name_H-M   'P 1'
_cell_length_a   8.59179799
_cell_length_b   10.29829248
_cell_length_c   12.54264821
_cell_angle_alpha   90.00000000
_cell_angle_beta   133.23979063
_cell_angle_gamma   90.00000000
_symmetry_Int_Tables_number   1
_chemical_formula_structural   LiCrPO5
_chemical_formula_sum   'Li8 Cr8 P8 O40'
_cell_volume   808.47004456
_cell_formula_units_Z   8
loop_
 _symmetry_equiv_pos_site_id
 _symmetry_equiv_pos_as_xyz
  1  'x, y, z'
loop_
 _atom_site_type_symbol
 _atom_site_label
 _atom_site_symmetry_multiplicity
 _atom_site_fract_x
 _atom_site_fract_y
 _atom_site_fract_z
 _atom_site_occupancy
  Li  Li0  1  0.066070  0.002066  0.818785  1
  Li  Li1  1  0.185813  0.882802  0.165710  1
  Li  Li2  1  0.814187  0.382802  0.834290  1
  Li  Li3  1  0.933930  0.502066  0.181215  1
  Li  Li4  1  0.221744  0.952497  0.525279  1
  Li  Li5  1  0.370496  0.610401  0.836774  1
  Li  Li6  1  0.629504  0.110401  0.163226  1
  Li  Li7  1  0.778256  0.452497  0.474721  1
  Cr  Cr8  1  0.269096  0.389746  0.157759  1
  Cr  Cr9  1  0.462258  0.112500  0.358605  1
  Cr  Cr10  1  0.537742  0.612500  0.641395  1
  Cr  Cr11  1  0.730904  0.889746  0.842241  1
  Cr  Cr12  1  0.457765  0.115536  0.846756  1
  Cr  Cr13  1  0.254124  0.392428  0.645681  1
  Cr  Cr14  1  0.745876  0.892428  0.354319  1
  Cr  Cr15  1  0.542235  0.615536  0.153244  1
  P  P16  1  0.649846  0.856435  0.552852  1
  P  P17  1  0.030917  0.628908  0.953160  1
  P  P18  1  0.969083  0.128908  0.046840  1
  P  P19  1  0.350154  0.356435  0.447148  1
  P  P20  1  0.041173  0.644944  0.443183  1
  P  P21  1  0.626526  0.869941  0.045816  1
  P  P22  1  0.373474  0.369941  0.954184  1
  P  P23  1  0.958827  0.144944  0.556817  1
  O  O24  1  0.526232  0.004367  0.264132  1
  O  O25  1  0.507060  0.490908  0.252923  1
  O  O26  1  0.225484  0.368996  0.982467  1
  O  O27  1  0.758343  0.132417  0.532849  1
  O  O28  1  0.451850  0.243750  0.259912  1
  O  O29  1  0.782014  0.906345  0.712277  1
  O  O30  1  0.846990  0.573198  0.798013  1
  O  O31  1  0.584963  0.714145  0.535667  1
  O  O32  1  0.551327  0.443655  0.558105  1
  O  O33  1  0.008605  0.268647  0.025360  1
  O  O34  1  0.947460  0.034371  0.939730  1
  O  O35  1  0.052540  0.534371  0.060270  1
  O  O36  1  0.991395  0.768647  0.974640  1
  O  O37  1  0.448673  0.943655  0.441895  1
  O  O38  1  0.415037  0.214145  0.464333  1
  O  O39  1  0.153010  0.073198  0.201987  1
  O  O40  1  0.217986  0.406345  0.287723  1
  O  O41  1  0.548150  0.743750  0.740088  1
  O  O42  1  0.241657  0.632417  0.467151  1
  O  O43  1  0.774516  0.868996  0.017533  1
  O  O44  1  0.473768  0.504367  0.735868  1
  O  O45  1  0.492940  0.990908  0.747077  1
  O  O46  1  0.764742  0.131385  0.018594  1
  O  O47  1  0.194313  0.365311  0.468877  1
  O  O48  1  0.438137  0.249722  0.745218  1
  O  O49  1  0.856141  0.600237  0.282833  1
  O  O50  1  0.755381  0.922347  0.202400  1
  O  O51  1  0.020622  0.789524  0.465063  1
  O  O52  1  0.951890  0.054641  0.452669  1
  O  O53  1  0.460865  0.230955  0.980311  1
  O  O54  1  0.562743  0.467977  0.057424  1
  O  O55  1  0.437257  0.967977  0.942576  1
  O  O56  1  0.539135  0.730955  0.019689  1
  O  O57  1  0.048110  0.554641  0.547331  1
  O  O58  1  0.979378  0.289524  0.534937  1
  O  O59  1  0.244619  0.422347  0.797600  1
  O  O60  1  0.143859  0.100237  0.717167  1
  O  O61  1  0.561863  0.749722  0.254782  1
  O  O62  1  0.805687  0.865311  0.531123  1
  O  O63  1  0.235258  0.631385  0.981406  1
