# generated using pymatgen
data_Fe3(O2F)2
_symmetry_space_group_name_H-M   'P 1'
_cell_length_a   4.63898629
_cell_length_b   4.63898629
_cell_length_c   9.15087715
_cell_angle_alpha   89.80962050
_cell_angle_beta   90.19037950
_cell_angle_gamma   90.02471656
_symmetry_Int_Tables_number   1
_chemical_formula_structural   Fe3(O2F)2
_chemical_formula_sum   'Fe6 O8 F4'
_cell_volume   196.92645833
_cell_formula_units_Z   2
loop_
 _symmetry_equiv_pos_site_id
 _symmetry_equiv_pos_as_xyz
  1  'x, y, z'
loop_
 _atom_site_type_symbol
 _atom_site_label
 _atom_site_symmetry_multiplicity
 _atom_site_fract_x
 _atom_site_fract_y
 _atom_site_fract_z
 _atom_site_occupancy
  Fe  Fe0  1  0.035620  0.981920  0.156613  1
  Fe  Fe1  1  0.981920  0.035620  0.843387  1
  Fe  Fe2  1  0.019710  0.019710  0.500000  1
  Fe  Fe3  1  0.505461  0.505461  0.000000  1
  Fe  Fe4  1  0.476707  0.488943  0.338961  1
  Fe  Fe5  1  0.488943  0.476707  0.661039  1
  O  O6  1  0.209246  0.209246  0.000000  1
  O  O7  1  0.179095  0.198441  0.672421  1
  O  O8  1  0.198441  0.179095  0.327579  1
  O  O9  1  0.679682  0.323430  0.836328  1
  O  O10  1  0.695699  0.297355  0.496878  1
  O  O11  1  0.323430  0.679682  0.163672  1
  O  O12  1  0.297355  0.695699  0.503122  1
  O  O13  1  0.805600  0.805600  0.000000  1
  F  F14  1  0.707498  0.295739  0.168294  1
  F  F15  1  0.295739  0.707498  0.831706  1
  F  F16  1  0.808089  0.791763  0.329686  1
  F  F17  1  0.791763  0.808089  0.670314  1
