# generated using pymatgen
data_Mn3OF8
_symmetry_space_group_name_H-M   'P 1'
_cell_length_a   5.15765535
_cell_length_b   5.15765535
_cell_length_c   13.42713560
_cell_angle_alpha   88.33595286
_cell_angle_beta   91.66404714
_cell_angle_gamma   119.73686353
_symmetry_Int_Tables_number   1
_chemical_formula_structural   Mn3OF8
_chemical_formula_sum   'Mn6 O2 F16'
_cell_volume   309.96963771
_cell_formula_units_Z   2
loop_
 _symmetry_equiv_pos_site_id
 _symmetry_equiv_pos_as_xyz
  1  'x, y, z'
loop_
 _atom_site_type_symbol
 _atom_site_label
 _atom_site_symmetry_multiplicity
 _atom_site_fract_x
 _atom_site_fract_y
 _atom_site_fract_z
 _atom_site_occupancy
  Mn  Mn0  1  0.024897  0.034135  0.994362  1
  Mn  Mn1  1  0.965865  0.975103  0.494362  1
  Mn  Mn2  1  0.354411  0.682156  0.338782  1
  Mn  Mn3  1  0.317844  0.645589  0.838782  1
  Mn  Mn4  1  0.686417  0.357920  0.166667  1
  Mn  Mn5  1  0.642080  0.313583  0.666667  1
  O  O6  1  0.669681  0.710098  0.416698  1
  O  O7  1  0.289902  0.330319  0.916698  1
  F  F8  1  0.579817  0.600804  0.751858  1
  F  F9  1  0.685241  0.950869  0.918926  1
  F  F10  1  0.629164  0.037851  0.247421  1
  F  F11  1  0.049131  0.314759  0.418926  1
  F  F12  1  0.373053  0.979627  0.749672  1
  F  F13  1  0.264903  0.936384  0.421466  1
  F  F14  1  0.954605  0.276775  0.075761  1
  F  F15  1  0.962149  0.370836  0.747421  1
  F  F16  1  0.020373  0.626947  0.249672  1
  F  F17  1  0.063616  0.735097  0.921466  1
  F  F18  1  0.723225  0.045395  0.575761  1
  F  F19  1  0.925032  0.659094  0.584207  1
  F  F20  1  0.750007  0.685570  0.084078  1
  F  F21  1  0.340906  0.074968  0.084207  1
  F  F22  1  0.399196  0.420183  0.251858  1
  F  F23  1  0.314430  0.249993  0.584078  1
