# generated using pymatgen
data_Ho2TiO5
_symmetry_space_group_name_H-M   'P 1'
_cell_length_a   3.62257047
_cell_length_b   7.45058044
_cell_length_c   15.46651279
_cell_angle_alpha   90.00000000
_cell_angle_beta   90.00000000
_cell_angle_gamma   90.00000000
_symmetry_Int_Tables_number   1
_chemical_formula_structural   Ho2TiO5
_chemical_formula_sum   'Ho8 Ti4 O20'
_cell_volume   417.44508838
_cell_formula_units_Z   4
loop_
 _symmetry_equiv_pos_site_id
 _symmetry_equiv_pos_as_xyz
  1  'x, y, z'
loop_
 _atom_site_type_symbol
 _atom_site_label
 _atom_site_symmetry_multiplicity
 _atom_site_fract_x
 _atom_site_fract_y
 _atom_site_fract_z
 _atom_site_occupancy
  Ho  Ho0  1  0.750000  0.899518  0.084093  1
  Ho  Ho1  1  0.750000  0.838914  0.737490  1
  Ho  Ho2  1  0.250000  0.661086  0.237490  1
  Ho  Ho3  1  0.250000  0.600482  0.584093  1
  Ho  Ho4  1  0.750000  0.399518  0.415907  1
  Ho  Ho5  1  0.750000  0.338914  0.762510  1
  Ho  Ho6  1  0.250000  0.161086  0.262510  1
  Ho  Ho7  1  0.250000  0.100482  0.915907  1
  Ti  Ti8  1  0.750000  0.886588  0.423569  1
  Ti  Ti9  1  0.250000  0.613412  0.923569  1
  Ti  Ti10  1  0.750000  0.386588  0.076431  1
  Ti  Ti11  1  0.250000  0.113412  0.576431  1
  O  O12  1  0.250000  0.930028  0.173852  1
  O  O13  1  0.250000  0.926678  0.453307  1
  O  O14  1  0.250000  0.879082  0.648373  1
  O  O15  1  0.250000  0.842138  0.994978  1
  O  O16  1  0.750000  0.753372  0.322540  1
  O  O17  1  0.250000  0.746628  0.822540  1
  O  O18  1  0.750000  0.657862  0.494978  1
  O  O19  1  0.750000  0.620918  0.148373  1
  O  O20  1  0.750000  0.573322  0.953307  1
  O  O21  1  0.750000  0.569972  0.673852  1
  O  O22  1  0.250000  0.430028  0.326148  1
  O  O23  1  0.250000  0.426678  0.046693  1
  O  O24  1  0.250000  0.379082  0.851627  1
  O  O25  1  0.250000  0.342138  0.505022  1
  O  O26  1  0.750000  0.253372  0.177460  1
  O  O27  1  0.250000  0.246628  0.677460  1
  O  O28  1  0.750000  0.157862  0.005022  1
  O  O29  1  0.750000  0.120918  0.351627  1
  O  O30  1  0.750000  0.073322  0.546693  1
  O  O31  1  0.750000  0.069972  0.826148  1
