# generated using pymatgen
data_Mn4O7F
_symmetry_space_group_name_H-M   'P 1'
_cell_length_a   4.48349343
_cell_length_b   4.97511299
_cell_length_c   5.52049825
_cell_angle_alpha   89.96256142
_cell_angle_beta   88.57626853
_cell_angle_gamma   89.92250631
_symmetry_Int_Tables_number   1
_chemical_formula_structural   Mn4O7F
_chemical_formula_sum   'Mn4 O7 F1'
_cell_volume   123.10145548
_cell_formula_units_Z   1
loop_
 _symmetry_equiv_pos_site_id
 _symmetry_equiv_pos_as_xyz
  1  'x, y, z'
loop_
 _atom_site_type_symbol
 _atom_site_label
 _atom_site_symmetry_multiplicity
 _atom_site_fract_x
 _atom_site_fract_y
 _atom_site_fract_z
 _atom_site_occupancy
  Mn  Mn0  1  0.990224  0.264258  0.145150  1
  Mn  Mn1  1  0.991640  0.746513  0.837263  1
  Mn  Mn2  1  0.496847  0.244469  0.645033  1
  Mn  Mn3  1  0.509747  0.742534  0.363381  1
  O  O4  1  0.767708  0.079905  0.887833  1
  O  O5  1  0.768009  0.583083  0.114119  1
  O  O6  1  0.726354  0.571167  0.609259  1
  O  O7  1  0.737219  0.077629  0.388849  1
  O  O8  1  0.268771  0.917959  0.611494  1
  O  O9  1  0.268679  0.420336  0.388603  1
  O  O10  1  0.232811  0.425049  0.887686  1
  F  F11  1  0.241990  0.927098  0.121327  1
