# generated using pymatgen
data_CoO2
_symmetry_space_group_name_H-M   'P 1'
_cell_length_a   2.83260765
_cell_length_b   2.83260765
_cell_length_c   10.65041627
_cell_angle_alpha   90.00000000
_cell_angle_beta   90.00000000
_cell_angle_gamma   119.91700718
_symmetry_Int_Tables_number   1
_chemical_formula_structural   CoO2
_chemical_formula_sum   'Co2 O4'
_cell_volume   74.06834668
_cell_formula_units_Z   2
loop_
 _symmetry_equiv_pos_site_id
 _symmetry_equiv_pos_as_xyz
  1  'x, y, z'
loop_
 _atom_site_type_symbol
 _atom_site_label
 _atom_site_symmetry_multiplicity
 _atom_site_fract_x
 _atom_site_fract_y
 _atom_site_fract_z
 _atom_site_occupancy
  Co  Co0  1  0.961223  0.538777  0.752050  1
  Co  Co1  1  0.461223  0.038777  0.247950  1
  O  O2  1  0.628121  0.871879  0.840655  1
  O  O3  1  0.128121  0.371879  0.159345  1
  O  O4  1  0.294157  0.205843  0.663370  1
  O  O5  1  0.794157  0.705843  0.336630  1
