# generated using pymatgen
data_Li5Cr4O8
_symmetry_space_group_name_H-M   'P 1'
_cell_length_a   6.06284075
_cell_length_b   6.06284075
_cell_length_c   9.96338677
_cell_angle_alpha   90.00000000
_cell_angle_beta   90.00000000
_cell_angle_gamma   121.39985956
_symmetry_Int_Tables_number   1
_chemical_formula_structural   Li5Cr4O8
_chemical_formula_sum   'Li10 Cr8 O16'
_cell_volume   312.60025895
_cell_formula_units_Z   2
loop_
 _symmetry_equiv_pos_site_id
 _symmetry_equiv_pos_as_xyz
  1  'x, y, z'
loop_
 _atom_site_type_symbol
 _atom_site_label
 _atom_site_symmetry_multiplicity
 _atom_site_fract_x
 _atom_site_fract_y
 _atom_site_fract_z
 _atom_site_occupancy
  Li  Li0  1  0.114665  0.324409  0.062847  1
  Li  Li1  1  0.675591  0.885335  0.062847  1
  Li  Li2  1  0.705168  0.294832  0.050292  1
  Li  Li3  1  0.816282  0.183718  0.276921  1
  Li  Li4  1  0.510983  0.489017  0.986755  1
  Li  Li5  1  0.294832  0.705168  0.550292  1
  Li  Li6  1  0.489017  0.510983  0.486755  1
  Li  Li7  1  0.324409  0.114665  0.562847  1
  Li  Li8  1  0.183718  0.816282  0.776921  1
  Li  Li9  1  0.885335  0.675591  0.562847  1
  Cr  Cr10  1  0.838066  0.161934  0.526410  1
  Cr  Cr11  1  0.684009  0.820870  0.785832  1
  Cr  Cr12  1  0.161934  0.838066  0.026410  1
  Cr  Cr13  1  0.820870  0.684009  0.285832  1
  Cr  Cr14  1  0.179130  0.315991  0.785832  1
  Cr  Cr15  1  0.317073  0.682927  0.285856  1
  Cr  Cr16  1  0.682927  0.317073  0.785856  1
  Cr  Cr17  1  0.315991  0.179130  0.285832  1
  O  O18  1  0.482390  0.517610  0.175455  1
  O  O19  1  0.168126  0.356570  0.401927  1
  O  O20  1  0.012302  0.987698  0.674294  1
  O  O21  1  0.006019  0.468370  0.667762  1
  O  O22  1  0.844698  0.155302  0.900036  1
  O  O23  1  0.643430  0.831874  0.401927  1
  O  O24  1  0.531630  0.993981  0.667762  1
  O  O25  1  0.356250  0.643750  0.898729  1
  O  O26  1  0.643750  0.356250  0.398729  1
  O  O27  1  0.468370  0.006019  0.167762  1
  O  O28  1  0.993981  0.531630  0.167762  1
  O  O29  1  0.155302  0.844698  0.400036  1
  O  O30  1  0.517610  0.482390  0.675455  1
  O  O31  1  0.356570  0.168126  0.901927  1
  O  O32  1  0.987698  0.012302  0.174294  1
  O  O33  1  0.831874  0.643430  0.901927  1
