# generated using pymatgen
data_Yb11(Ni10C)6
_symmetry_space_group_name_H-M   'P 1'
_cell_length_a   10.67503826
_cell_length_b   10.67503826
_cell_length_c   10.67503826
_cell_angle_alpha   109.47122063
_cell_angle_beta   109.47122063
_cell_angle_gamma   109.47122063
_symmetry_Int_Tables_number   1
_chemical_formula_structural   Yb11(Ni10C)6
_chemical_formula_sum   'Yb11 Ni60 C6'
_cell_volume   936.45395871
_cell_formula_units_Z   1
loop_
 _symmetry_equiv_pos_site_id
 _symmetry_equiv_pos_as_xyz
  1  'x, y, z'
loop_
 _atom_site_type_symbol
 _atom_site_label
 _atom_site_symmetry_multiplicity
 _atom_site_fract_x
 _atom_site_fract_y
 _atom_site_fract_z
 _atom_site_occupancy
  Yb  Yb0  1  0.665309  0.665309  0.665309  1
  Yb  Yb1  1  0.665309  1.000000  0.000000  1
  Yb  Yb2  1  0.000000  0.000000  0.665309  1
  Yb  Yb3  1  0.000000  0.665309  0.000000  1
  Yb  Yb4  1  1.000000  1.000000  0.334691  1
  Yb  Yb5  1  0.000000  0.334691  0.000000  1
  Yb  Yb6  1  0.334691  0.000000  0.000000  1
  Yb  Yb7  1  0.334691  0.334691  0.334691  1
  Yb  Yb8  1  0.500000  1.000000  0.500000  1
  Yb  Yb9  1  0.000000  0.500000  0.500000  1
  Yb  Yb10  1  0.500000  0.500000  0.000000  1
  Ni  Ni11  1  0.419573  0.000000  0.767163  1
  Ni  Ni12  1  1.000000  0.419573  0.767163  1
  Ni  Ni13  1  0.232837  0.232837  0.652410  1
  Ni  Ni14  1  0.580427  0.347590  0.580427  1
  Ni  Ni15  1  0.580427  0.232837  0.000000  1
  Ni  Ni16  1  0.347590  0.580427  0.580427  1
  Ni  Ni17  1  0.232837  0.580427  0.000000  1
  Ni  Ni18  1  0.580427  0.580427  0.347590  1
  Ni  Ni19  1  0.767163  0.767163  0.347590  1
  Ni  Ni20  1  0.419573  0.652410  0.419573  1
  Ni  Ni21  1  0.652410  0.419573  0.419573  1
  Ni  Ni22  1  0.000000  0.580427  0.232837  1
  Ni  Ni23  1  0.580427  0.000000  0.232837  1
  Ni  Ni24  1  0.347590  0.767163  0.767163  1
  Ni  Ni25  1  0.232837  0.000000  0.580427  1
  Ni  Ni26  1  1.000000  0.232837  0.580427  1
  Ni  Ni27  1  0.767163  0.347590  0.767163  1
  Ni  Ni28  1  0.767163  0.000000  0.419573  1
  Ni  Ni29  1  0.232837  0.652410  0.232837  1
  Ni  Ni30  1  0.652410  0.232837  0.232837  1
  Ni  Ni31  1  0.000000  0.767163  0.419573  1
  Ni  Ni32  1  0.767163  0.419573  0.000000  1
  Ni  Ni33  1  0.419573  0.767163  0.000000  1
  Ni  Ni34  1  0.419573  0.419573  0.652410  1
  Ni  Ni35  1  0.464581  0.316033  0.148548  1
  Ni  Ni36  1  0.683967  0.148548  0.832515  1
  Ni  Ni37  1  0.851452  0.167485  0.316033  1
  Ni  Ni38  1  0.535419  0.683967  0.851452  1
  Ni  Ni39  1  0.535419  0.851452  0.683967  1
  Ni  Ni40  1  0.683967  0.851452  0.535419  1
  Ni  Ni41  1  0.167484  0.851452  0.316033  1
  Ni  Ni42  1  0.851452  0.535419  0.683967  1
  Ni  Ni43  1  0.832515  0.148548  0.683967  1
  Ni  Ni44  1  0.148548  0.316033  0.464581  1
  Ni  Ni45  1  0.316033  0.464581  0.148548  1
  Ni  Ni46  1  0.683967  0.535419  0.851452  1
  Ni  Ni47  1  0.851452  0.316033  0.167485  1
  Ni  Ni48  1  0.683967  0.832515  0.148548  1
  Ni  Ni49  1  0.851452  0.683967  0.535419  1
  Ni  Ni50  1  0.316033  0.167485  0.851452  1
  Ni  Ni51  1  0.148548  0.683967  0.832516  1
  Ni  Ni52  1  0.832515  0.683967  0.148548  1
  Ni  Ni53  1  0.167485  0.316033  0.851452  1
  Ni  Ni54  1  0.316033  0.851452  0.167485  1
  Ni  Ni55  1  0.316033  0.148548  0.464581  1
  Ni  Ni56  1  0.148548  0.464581  0.316033  1
  Ni  Ni57  1  0.148548  0.832516  0.683967  1
  Ni  Ni58  1  0.464581  0.148548  0.316033  1
  Ni  Ni59  1  0.000000  0.857528  0.857528  1
  Ni  Ni60  1  0.142472  0.142472  0.000000  1
  Ni  Ni61  1  0.857528  0.857528  0.000000  1
  Ni  Ni62  1  0.857528  1.000000  0.857528  1
  Ni  Ni63  1  0.142472  1.000000  0.142472  1
  Ni  Ni64  1  1.000000  0.142472  0.142472  1
  Ni  Ni65  1  0.750000  0.250000  0.500000  1
  Ni  Ni66  1  0.250000  0.750000  0.500000  1
  Ni  Ni67  1  0.750000  0.500000  0.250000  1
  Ni  Ni68  1  0.500000  0.250000  0.750000  1
  Ni  Ni69  1  0.500000  0.750000  0.250000  1
  Ni  Ni70  1  0.250000  0.500000  0.750000  1
  C  C71  1  0.000000  0.709417  0.709417  1
  C  C72  1  0.290583  0.290583  0.000000  1
  C  C73  1  0.709417  0.709417  0.000000  1
  C  C74  1  0.709417  1.000000  0.709417  1
  C  C75  1  0.290583  1.000000  0.290583  1
  C  C76  1  1.000000  0.290583  0.290583  1
