# generated using pymatgen
data_SrGa12O19
_symmetry_space_group_name_H-M   'P 1'
_cell_length_a   5.87580740
_cell_length_b   5.87580740
_cell_length_c   23.13297492
_cell_angle_alpha   90.00000000
_cell_angle_beta   90.00000000
_cell_angle_gamma   120.00000000
_symmetry_Int_Tables_number   1
_chemical_formula_structural   SrGa12O19
_chemical_formula_sum   'Sr2 Ga24 O38'
_cell_volume   691.66726612
_cell_formula_units_Z   2
loop_
 _symmetry_equiv_pos_site_id
 _symmetry_equiv_pos_as_xyz
  1  'x, y, z'
loop_
 _atom_site_type_symbol
 _atom_site_label
 _atom_site_symmetry_multiplicity
 _atom_site_fract_x
 _atom_site_fract_y
 _atom_site_fract_z
 _atom_site_occupancy
  Sr  Sr0  1  0.333333  0.666667  0.749231  1
  Sr  Sr1  1  0.666667  0.333333  0.249231  1
  Ga  Ga2  1  0.168998  0.831002  0.890999  1
  Ga  Ga3  1  0.167688  0.832312  0.609756  1
  Ga  Ga4  1  0.333333  0.666667  0.027439  1
  Ga  Ga5  1  0.333333  0.666667  0.189439  1
  Ga  Ga6  1  0.333333  0.666667  0.310086  1
  Ga  Ga7  1  0.167688  0.335376  0.609756  1
  Ga  Ga8  1  0.000000  0.000000  0.000301  1
  Ga  Ga9  1  0.000000  0.000000  0.257190  1
  Ga  Ga10  1  0.000000  0.000000  0.757190  1
  Ga  Ga11  1  0.333333  0.666667  0.472959  1
  Ga  Ga12  1  0.000000  0.000000  0.500301  1
  Ga  Ga13  1  0.168998  0.337996  0.890999  1
  Ga  Ga14  1  0.664624  0.832312  0.609756  1
  Ga  Ga15  1  0.662004  0.831002  0.890999  1
  Ga  Ga16  1  0.335376  0.167688  0.109756  1
  Ga  Ga17  1  0.337996  0.168998  0.390999  1
  Ga  Ga18  1  0.831002  0.662004  0.390999  1
  Ga  Ga19  1  0.832312  0.664624  0.109756  1
  Ga  Ga20  1  0.666667  0.333333  0.689439  1
  Ga  Ga21  1  0.666667  0.333333  0.810086  1
  Ga  Ga22  1  0.666667  0.333333  0.972959  1
  Ga  Ga23  1  0.666667  0.333333  0.527439  1
  Ga  Ga24  1  0.832312  0.167688  0.109756  1
  Ga  Ga25  1  0.831002  0.168998  0.390999  1
  O  O26  1  0.155750  0.844250  0.052198  1
  O  O27  1  0.155164  0.844836  0.447195  1
  O  O28  1  0.010001  0.505001  0.849871  1
  O  O29  1  0.009492  0.504746  0.650341  1
  O  O30  1  0.181944  0.818056  0.250559  1
  O  O31  1  0.333333  0.666667  0.944888  1
  O  O32  1  0.000000  0.000000  0.148807  1
  O  O33  1  0.155750  0.311500  0.052198  1
  O  O34  1  0.181944  0.363887  0.250559  1
  O  O35  1  0.000000  0.000000  0.648807  1
  O  O36  1  0.333333  0.666667  0.555180  1
  O  O37  1  0.155164  0.310328  0.447195  1
  O  O38  1  0.495254  0.990508  0.650341  1
  O  O39  1  0.000000  0.000000  0.349679  1
  O  O40  1  0.494999  0.989999  0.849871  1
  O  O41  1  0.000000  0.000000  0.849679  1
  O  O42  1  0.636113  0.818056  0.250559  1
  O  O43  1  0.311500  0.155750  0.552198  1
  O  O44  1  0.310328  0.155164  0.947195  1
  O  O45  1  0.495254  0.504746  0.650341  1
  O  O46  1  0.494999  0.505001  0.849871  1
  O  O47  1  0.504746  0.495254  0.150341  1
  O  O48  1  0.505001  0.494999  0.349871  1
  O  O49  1  0.688500  0.844250  0.052198  1
  O  O50  1  0.689672  0.844836  0.447195  1
  O  O51  1  0.363887  0.181944  0.750559  1
  O  O52  1  0.504746  0.009492  0.150341  1
  O  O53  1  0.505001  0.010001  0.349871  1
  O  O54  1  0.666667  0.333333  0.055180  1
  O  O55  1  0.666667  0.333333  0.444888  1
  O  O56  1  0.844836  0.689672  0.947195  1
  O  O57  1  0.844250  0.688500  0.552198  1
  O  O58  1  0.818056  0.636113  0.750559  1
  O  O59  1  0.818056  0.181944  0.750559  1
  O  O60  1  0.990508  0.495254  0.150341  1
  O  O61  1  0.989999  0.494999  0.349871  1
  O  O62  1  0.844836  0.155164  0.947195  1
  O  O63  1  0.844250  0.155750  0.552198  1
