# generated using pymatgen
data_LiMn(PO3)3
_symmetry_space_group_name_H-M   'P 1'
_cell_length_a   5.39284849
_cell_length_b   10.82897052
_cell_length_c   12.07886509
_cell_angle_alpha   90.00000000
_cell_angle_beta   90.00000000
_cell_angle_gamma   90.00000000
_symmetry_Int_Tables_number   1
_chemical_formula_structural   LiMn(PO3)3
_chemical_formula_sum   'Li4 Mn4 P12 O36'
_cell_volume   705.39360998
_cell_formula_units_Z   4
loop_
 _symmetry_equiv_pos_site_id
 _symmetry_equiv_pos_as_xyz
  1  'x, y, z'
loop_
 _atom_site_type_symbol
 _atom_site_label
 _atom_site_symmetry_multiplicity
 _atom_site_fract_x
 _atom_site_fract_y
 _atom_site_fract_z
 _atom_site_occupancy
  Li  Li0  1  0.100766  0.115977  0.082117  1
  Li  Li1  1  0.600766  0.384023  0.917883  1
  Li  Li2  1  0.899234  0.615977  0.417883  1
  Li  Li3  1  0.399234  0.884023  0.582117  1
  Mn  Mn4  1  0.596835  0.029272  0.865936  1
  Mn  Mn5  1  0.096835  0.470728  0.134064  1
  Mn  Mn6  1  0.403165  0.529272  0.634064  1
  Mn  Mn7  1  0.903165  0.970728  0.365936  1
  P  P8  1  0.880098  0.076320  0.624784  1
  P  P9  1  0.394464  0.153024  0.358741  1
  P  P10  1  0.084333  0.192801  0.819193  1
  P  P11  1  0.584333  0.307199  0.180807  1
  P  P12  1  0.894464  0.346976  0.641259  1
  P  P13  1  0.380098  0.423680  0.375216  1
  P  P14  1  0.119902  0.576320  0.875216  1
  P  P15  1  0.605536  0.653024  0.141259  1
  P  P16  1  0.915667  0.692801  0.680807  1
  P  P17  1  0.415667  0.807199  0.319193  1
  P  P18  1  0.105536  0.846976  0.858741  1
  P  P19  1  0.619902  0.923680  0.124784  1
  O  O20  1  0.505032  0.007923  0.040504  1
  O  O21  1  0.635631  0.040718  0.676893  1
  O  O22  1  0.539695  0.062208  0.426501  1
  O  O23  1  0.085932  0.089090  0.722683  1
  O  O24  1  0.140205  0.120053  0.317223  1
  O  O25  1  0.848280  0.186967  0.886841  1
  O  O26  1  0.327063  0.185028  0.878900  1
  O  O27  1  0.575551  0.183406  0.254034  1
  O  O28  1  0.879538  0.215944  0.576580  1
  O  O29  1  0.379538  0.284056  0.423420  1
  O  O30  1  0.075551  0.316594  0.745966  1
  O  O31  1  0.827063  0.314972  0.121100  1
  O  O32  1  0.348280  0.313033  0.113159  1
  O  O33  1  0.640205  0.379947  0.682777  1
  O  O34  1  0.585932  0.410910  0.277317  1
  O  O35  1  0.039695  0.437792  0.573499  1
  O  O36  1  0.135631  0.459282  0.323107  1
  O  O37  1  0.005032  0.492077  0.959496  1
  O  O38  1  0.494968  0.507923  0.459496  1
  O  O39  1  0.364369  0.540718  0.823107  1
  O  O40  1  0.460305  0.562208  0.073499  1
  O  O41  1  0.914068  0.589090  0.777317  1
  O  O42  1  0.859795  0.620053  0.182777  1
  O  O43  1  0.151720  0.686967  0.613159  1
  O  O44  1  0.672937  0.685028  0.621100  1
  O  O45  1  0.424449  0.683406  0.245966  1
  O  O46  1  0.120462  0.715944  0.923420  1
  O  O47  1  0.620462  0.784056  0.076580  1
  O  O48  1  0.924449  0.816594  0.754034  1
  O  O49  1  0.172937  0.814972  0.378900  1
  O  O50  1  0.651720  0.813033  0.386841  1
  O  O51  1  0.359795  0.879947  0.817223  1
  O  O52  1  0.414068  0.910910  0.222683  1
  O  O53  1  0.960305  0.937792  0.926501  1
  O  O54  1  0.864369  0.959282  0.176893  1
  O  O55  1  0.994968  0.992077  0.540504  1
