# generated using pymatgen
data_Li2Fe5O5F7
_symmetry_space_group_name_H-M   'P 1'
_cell_length_a   5.91006084
_cell_length_b   5.98719255
_cell_length_c   6.17644214
_cell_angle_alpha   99.48937432
_cell_angle_beta   99.90307490
_cell_angle_gamma   99.47424789
_symmetry_Int_Tables_number   1
_chemical_formula_structural   Li2Fe5O5F7
_chemical_formula_sum   'Li2 Fe5 O5 F7'
_cell_volume   208.11932767
_cell_formula_units_Z   1
loop_
 _symmetry_equiv_pos_site_id
 _symmetry_equiv_pos_as_xyz
  1  'x, y, z'
loop_
 _atom_site_type_symbol
 _atom_site_label
 _atom_site_symmetry_multiplicity
 _atom_site_fract_x
 _atom_site_fract_y
 _atom_site_fract_z
 _atom_site_occupancy
  Li  Li0  1  0.864683  0.677607  0.406161  1
  Li  Li1  1  0.314031  0.600416  0.117151  1
  Fe  Fe2  1  0.646425  0.383768  0.835649  1
  Fe  Fe3  1  0.138985  0.339976  0.586982  1
  Fe  Fe4  1  0.624603  0.155102  0.346720  1
  Fe  Fe5  1  0.984605  0.004865  0.015426  1
  Fe  Fe6  1  0.410804  0.864331  0.680965  1
  O  O7  1  0.677818  0.065293  0.893819  1
  O  O8  1  0.396980  0.165778  0.570447  1
  O  O9  1  0.942327  0.114562  0.314441  1
  O  O10  1  0.407996  0.581740  0.794036  1
  O  O11  1  0.823144  0.404894  0.599457  1
  F  F12  1  0.124082  0.298166  0.938704  1
  F  F13  1  0.180655  0.594607  0.397694  1
  F  F14  1  0.579734  0.409014  0.180693  1
  F  F15  1  0.075206  0.879045  0.716424  1
  F  F16  1  0.608222  0.831876  0.441980  1
  F  F17  1  0.879377  0.673600  0.032806  1
  F  F18  1  0.320322  0.955359  0.130447  1
