# generated using pymatgen
data_Mn12O5F19
_symmetry_space_group_name_H-M   'P 1'
_cell_length_a   4.89131521
_cell_length_b   5.85017530
_cell_length_c   15.94796071
_cell_angle_alpha   89.77329857
_cell_angle_beta   89.78663553
_cell_angle_gamma   87.72854727
_symmetry_Int_Tables_number   1
_chemical_formula_structural   Mn12O5F19
_chemical_formula_sum   'Mn12 O5 F19'
_cell_volume   455.98666981
_cell_formula_units_Z   1
loop_
 _symmetry_equiv_pos_site_id
 _symmetry_equiv_pos_as_xyz
  1  'x, y, z'
loop_
 _atom_site_type_symbol
 _atom_site_label
 _atom_site_symmetry_multiplicity
 _atom_site_fract_x
 _atom_site_fract_y
 _atom_site_fract_z
 _atom_site_occupancy
  Mn  Mn0  1  0.985448  0.854892  0.418352  1
  Mn  Mn1  1  0.020524  0.189268  0.242290  1
  Mn  Mn2  1  0.012292  0.825387  0.079652  1
  Mn  Mn3  1  0.985333  0.850138  0.752375  1
  Mn  Mn4  1  0.972557  0.164913  0.581920  1
  Mn  Mn5  1  0.986690  0.167799  0.909729  1
  Mn  Mn6  1  0.504844  0.646787  0.585882  1
  Mn  Mn7  1  0.488575  0.655838  0.922793  1
  Mn  Mn8  1  0.493167  0.655006  0.249788  1
  Mn  Mn9  1  0.471234  0.353658  0.086123  1
  Mn  Mn10  1  0.510079  0.321208  0.421235  1
  Mn  Mn11  1  0.530623  0.328076  0.745823  1
  O  O12  1  0.782823  0.113757  0.478964  1
  O  O13  1  0.779096  0.119763  0.801292  1
  O  O14  1  0.715805  0.372933  0.639900  1
  O  O15  1  0.279701  0.601460  0.028377  1
  O  O16  1  0.292027  0.403117  0.191655  1
  F  F17  1  0.764255  0.890675  0.301972  1
  F  F18  1  0.767348  0.871326  0.642298  1
  F  F19  1  0.772028  0.884654  0.970168  1
  F  F20  1  0.756265  0.119565  0.132716  1
  F  F21  1  0.751598  0.617235  0.143315  1
  F  F22  1  0.740620  0.390843  0.310187  1
  F  F23  1  0.728627  0.613729  0.471251  1
  F  F24  1  0.731974  0.616461  0.814886  1
  F  F25  1  0.718086  0.375748  0.980677  1
  F  F26  1  0.264447  0.609722  0.365300  1
  F  F27  1  0.259648  0.396462  0.527028  1
  F  F28  1  0.294501  0.373148  0.852932  1
  F  F29  1  0.271432  0.608801  0.702768  1
  F  F30  1  0.232768  0.901893  0.191922  1
  F  F31  1  0.230263  0.895456  0.533475  1
  F  F32  1  0.236684  0.104917  0.358786  1
  F  F33  1  0.222639  0.106177  0.020899  1
  F  F34  1  0.230339  0.881205  0.858600  1
  F  F35  1  0.215660  0.117990  0.684669  1
