# generated using pymatgen
data_Ca2SnS4
_symmetry_space_group_name_H-M   'P 1'
_cell_length_a   3.71569195
_cell_length_b   13.21246156
_cell_length_c   13.42901442
_cell_angle_alpha   90.00000000
_cell_angle_beta   90.00000000
_cell_angle_gamma   90.00000000
_symmetry_Int_Tables_number   1
_chemical_formula_structural   Ca2SnS4
_chemical_formula_sum   'Ca8 Sn4 S16'
_cell_volume   659.27647405
_cell_formula_units_Z   4
loop_
 _symmetry_equiv_pos_site_id
 _symmetry_equiv_pos_as_xyz
  1  'x, y, z'
loop_
 _atom_site_type_symbol
 _atom_site_label
 _atom_site_symmetry_multiplicity
 _atom_site_fract_x
 _atom_site_fract_y
 _atom_site_fract_z
 _atom_site_occupancy
  Ca  Ca0  1  0.250000  0.104999  0.921652  1
  Ca  Ca1  1  0.250000  0.604999  0.578348  1
  Ca  Ca2  1  0.750000  0.895001  0.078348  1
  Ca  Ca3  1  0.750000  0.395001  0.421652  1
  Ca  Ca4  1  0.250000  0.145919  0.281434  1
  Ca  Ca5  1  0.250000  0.645919  0.218566  1
  Ca  Ca6  1  0.750000  0.854081  0.718566  1
  Ca  Ca7  1  0.750000  0.354081  0.781434  1
  Sn  Sn8  1  0.750000  0.127733  0.581128  1
  Sn  Sn9  1  0.750000  0.627733  0.918872  1
  Sn  Sn10  1  0.250000  0.872267  0.418872  1
  Sn  Sn11  1  0.250000  0.372267  0.081128  1
  S  S12  1  0.750000  0.298154  0.228952  1
  S  S13  1  0.750000  0.798154  0.271048  1
  S  S14  1  0.250000  0.701846  0.771048  1
  S  S15  1  0.250000  0.201846  0.728952  1
  S  S16  1  0.750000  0.461993  0.616150  1
  S  S17  1  0.750000  0.961993  0.883850  1
  S  S18  1  0.250000  0.538007  0.383850  1
  S  S19  1  0.250000  0.038007  0.116150  1
  S  S20  1  0.250000  0.228691  0.476962  1
  S  S21  1  0.250000  0.728691  0.023038  1
  S  S22  1  0.750000  0.771309  0.523038  1
  S  S23  1  0.750000  0.271309  0.976962  1
  S  S24  1  0.750000  0.018305  0.396168  1
  S  S25  1  0.750000  0.518305  0.103832  1
  S  S26  1  0.250000  0.981695  0.603832  1
  S  S27  1  0.250000  0.481695  0.896168  1
