# generated using pymatgen
data_Li7(CoO3)2
_symmetry_space_group_name_H-M   'P 1'
_cell_length_a   8.74802724
_cell_length_b   8.74802724
_cell_length_c   3.74096914
_cell_angle_alpha   90.00000000
_cell_angle_beta   90.00000000
_cell_angle_gamma   90.00000000
_symmetry_Int_Tables_number   1
_chemical_formula_structural   Li7(CoO3)2
_chemical_formula_sum   'Li14 Co4 O12'
_cell_volume   286.28881384
_cell_formula_units_Z   2
loop_
 _symmetry_equiv_pos_site_id
 _symmetry_equiv_pos_as_xyz
  1  'x, y, z'
loop_
 _atom_site_type_symbol
 _atom_site_label
 _atom_site_symmetry_multiplicity
 _atom_site_fract_x
 _atom_site_fract_y
 _atom_site_fract_z
 _atom_site_occupancy
  Li  Li0  1  0.500000  0.500000  0.500000  1
  Li  Li1  1  0.674780  0.388489  0.212023  1
  Li  Li2  1  0.843704  0.343704  0.750000  1
  Li  Li3  1  0.388489  0.325220  0.787977  1
  Li  Li4  1  0.343704  0.156296  0.250000  1
  Li  Li5  1  0.888489  0.174780  0.287977  1
  Li  Li6  1  0.174780  0.111511  0.712023  1
  Li  Li7  1  0.000000  0.000000  0.000000  1
  Li  Li8  1  0.825220  0.888489  0.712023  1
  Li  Li9  1  0.111511  0.825220  0.287977  1
  Li  Li10  1  0.656296  0.843704  0.250000  1
  Li  Li11  1  0.611511  0.674780  0.787977  1
  Li  Li12  1  0.156296  0.656296  0.750000  1
  Li  Li13  1  0.325220  0.611511  0.212023  1
  Co  Co14  1  0.615791  0.115791  0.750000  1
  Co  Co15  1  0.384209  0.884209  0.750000  1
  Co  Co16  1  0.115791  0.384209  0.250000  1
  Co  Co17  1  0.884209  0.615791  0.250000  1
  O  O18  1  0.898879  0.398879  0.250000  1
  O  O19  1  0.330115  0.384829  0.279966  1
  O  O20  1  0.615171  0.330115  0.720034  1
  O  O21  1  0.115171  0.169885  0.220034  1
  O  O22  1  0.830115  0.115171  0.779966  1
  O  O23  1  0.398879  0.101121  0.750000  1
  O  O24  1  0.601121  0.898879  0.750000  1
  O  O25  1  0.169885  0.884829  0.779966  1
  O  O26  1  0.884829  0.830115  0.220034  1
  O  O27  1  0.384829  0.669885  0.720034  1
  O  O28  1  0.669885  0.615171  0.279966  1
  O  O29  1  0.101121  0.601121  0.250000  1
