# generated using pymatgen
data_Li2Fe2CuO6
_symmetry_space_group_name_H-M   'P 1'
_cell_length_a   6.59957917
_cell_length_b   6.68698129
_cell_length_c   8.47756907
_cell_angle_alpha   71.49498043
_cell_angle_beta   70.89368383
_cell_angle_gamma   83.63602508
_symmetry_Int_Tables_number   1
_chemical_formula_structural   Li2Fe2CuO6
_chemical_formula_sum   'Li6 Fe6 Cu3 O18'
_cell_volume   335.22793439
_cell_formula_units_Z   3
loop_
 _symmetry_equiv_pos_site_id
 _symmetry_equiv_pos_as_xyz
  1  'x, y, z'
loop_
 _atom_site_type_symbol
 _atom_site_label
 _atom_site_symmetry_multiplicity
 _atom_site_fract_x
 _atom_site_fract_y
 _atom_site_fract_z
 _atom_site_occupancy
  Li  Li0  1  0.008962  0.334042  0.164479  1
  Li  Li1  1  0.014000  0.663659  0.831592  1
  Li  Li2  1  0.333507  0.997140  0.169099  1
  Li  Li3  1  0.330834  0.672536  0.496854  1
  Li  Li4  1  0.657456  0.331214  0.501576  1
  Li  Li5  1  0.651611  0.006371  0.836574  1
  Fe  Fe6  1  0.996956  0.668665  0.334702  1
  Fe  Fe7  1  0.000440  0.328387  0.665955  1
  Fe  Fe8  1  0.665554  0.337254  0.000444  1
  Fe  Fe9  1  0.668781  0.995762  0.331327  1
  Fe  Fe10  1  0.999646  0.003666  0.998717  1
  Fe  Fe11  1  0.670077  0.665712  0.668014  1
  Cu  Cu12  1  0.332712  0.331396  0.332713  1
  Cu  Cu13  1  0.331482  0.000791  0.665825  1
  Cu  Cu14  1  0.336007  0.667586  0.001185  1
  O  O15  1  0.033371  0.674128  0.077406  1
  O  O16  1  0.016235  0.350345  0.412158  1
  O  O17  1  0.024122  0.007764  0.755457  1
  O  O18  1  0.340934  0.349910  0.102282  1
  O  O19  1  0.356227  0.003201  0.413538  1
  O  O20  1  0.674874  0.019497  0.081172  1
  O  O21  1  0.311350  0.659737  0.249740  1
  O  O22  1  0.325589  0.310987  0.563945  1
  O  O23  1  0.649193  0.314036  0.254032  1
  O  O24  1  0.342673  0.697492  0.749425  1
  O  O25  1  0.675519  0.676550  0.428483  1
  O  O26  1  0.681733  0.341714  0.750605  1
  O  O27  1  0.324127  0.976502  0.921103  1
  O  O28  1  0.634795  0.993626  0.589118  1
  O  O29  1  0.642197  0.658730  0.912615  1
  O  O30  1  0.989039  0.988856  0.240227  1
  O  O31  1  0.995189  0.645819  0.584288  1
  O  O32  1  0.984809  0.326921  0.915353  1
