# generated using pymatgen
data_LiFe2(BO3)2
_symmetry_space_group_name_H-M   'P 1'
_cell_length_a   5.23695708
_cell_length_b   9.14864479
_cell_length_c   10.12122812
_cell_angle_alpha   88.93844938
_cell_angle_beta   89.15019483
_cell_angle_gamma   89.23229060
_symmetry_Int_Tables_number   1
_chemical_formula_structural   LiFe2(BO3)2
_chemical_formula_sum   'Li4 Fe8 B8 O24'
_cell_volume   484.74044037
_cell_formula_units_Z   4
loop_
 _symmetry_equiv_pos_site_id
 _symmetry_equiv_pos_as_xyz
  1  'x, y, z'
loop_
 _atom_site_type_symbol
 _atom_site_label
 _atom_site_symmetry_multiplicity
 _atom_site_fract_x
 _atom_site_fract_y
 _atom_site_fract_z
 _atom_site_occupancy
  Li  Li0  1  0.151794  0.171225  0.652926  1
  Li  Li1  1  0.329406  0.328086  0.403400  1
  Li  Li2  1  0.327527  0.318394  0.921689  1
  Li  Li3  1  0.827987  0.829454  0.403982  1
  Fe  Fe4  1  0.171312  0.829012  0.630951  1
  Fe  Fe5  1  0.165100  0.505484  0.136306  1
  Fe  Fe6  1  0.317725  0.990217  0.880690  1
  Fe  Fe7  1  0.350700  0.659456  0.375406  1
  Fe  Fe8  1  0.655448  0.349450  0.627630  1
  Fe  Fe9  1  0.667151  0.003769  0.126666  1
  Fe  Fe10  1  0.843574  0.160745  0.377846  1
  Fe  Fe11  1  0.829357  0.504764  0.876785  1
  B  B12  1  0.154143  0.499005  0.625249  1
  B  B13  1  0.166817  0.833850  0.132332  1
  B  B14  1  0.338761  0.998062  0.383622  1
  B  B15  1  0.329919  0.660556  0.874193  1
  B  B16  1  0.672205  0.003884  0.626857  1
  B  B17  1  0.670631  0.332003  0.123960  1
  B  B18  1  0.834357  0.497378  0.375279  1
  B  B19  1  0.824387  0.175241  0.879913  1
  O  O20  1  0.094840  0.481105  0.333278  1
  O  O21  1  0.085900  0.170997  0.858893  1
  O  O22  1  0.200173  0.782724  0.825277  1
  O  O23  1  0.214050  0.869112  0.424417  1
  O  O24  1  0.217636  0.130943  0.390886  1
  O  O25  1  0.189055  0.538534  0.922426  1
  O  O26  1  0.279159  0.367137  0.606309  1
  O  O27  1  0.322755  0.945395  0.085630  1
  O  O28  1  0.261096  0.629153  0.581610  1
  O  O29  1  0.278709  0.699149  0.167087  1
  O  O30  1  0.409740  0.351161  0.117035  1
  O  O31  1  0.408976  0.997124  0.661161  1
  O  O32  1  0.592737  0.987299  0.337976  1
  O  O33  1  0.587872  0.654213  0.877744  1
  O  O34  1  0.683497  0.305447  0.850197  1
  O  O35  1  0.703429  0.371476  0.413353  1
  O  O36  1  0.724337  0.631922  0.378791  1
  O  O37  1  0.687594  0.057346  0.929141  1
  O  O38  1  0.829315  0.446157  0.080500  1
  O  O39  1  0.816235  0.877470  0.613916  1
  O  O40  1  0.784000  0.137769  0.599469  1
  O  O41  1  0.776937  0.201768  0.167531  1
  O  O42  1  0.910307  0.853685  0.145405  1
  O  O43  1  0.913379  0.500465  0.684379  1
