# generated using pymatgen
data_Na6(WO3)7
_symmetry_space_group_name_H-M   'P 1'
_cell_length_a   8.84595663
_cell_length_b   8.84595663
_cell_length_c   8.84595663
_cell_angle_alpha   113.57167227
_cell_angle_beta   113.57167227
_cell_angle_gamma   113.57167227
_symmetry_Int_Tables_number   1
_chemical_formula_structural   Na6(WO3)7
_chemical_formula_sum   'Na6 W7 O21'
_cell_volume   433.58180369
_cell_formula_units_Z   1
loop_
 _symmetry_equiv_pos_site_id
 _symmetry_equiv_pos_as_xyz
  1  'x, y, z'
loop_
 _atom_site_type_symbol
 _atom_site_label
 _atom_site_symmetry_multiplicity
 _atom_site_fract_x
 _atom_site_fract_y
 _atom_site_fract_z
 _atom_site_occupancy
  Na  Na0  1  0.570549  0.142739  0.285508  1
  Na  Na1  1  0.142739  0.285508  0.570549  1
  Na  Na2  1  0.285508  0.570549  0.142739  1
  Na  Na3  1  0.714492  0.429451  0.857261  1
  Na  Na4  1  0.857261  0.714492  0.429451  1
  Na  Na5  1  0.429451  0.857261  0.714492  1
  W  W6  1  0.785887  0.070593  0.645061  1
  W  W7  1  0.070593  0.645061  0.785887  1
  W  W8  1  0.645061  0.785887  0.070593  1
  W  W9  1  0.929407  0.354939  0.214113  1
  W  W10  1  0.214113  0.929407  0.354939  1
  W  W11  1  0.354939  0.214113  0.929407  1
  W  W12  1  0.500000  0.500000  0.500000  1
  O  O13  1  0.784282  0.073597  0.144392  1
  O  O14  1  0.566696  0.638808  0.782661  1
  O  O15  1  0.361192  0.217339  0.433304  1
  O  O16  1  0.500000  0.000000  0.500000  1
  O  O17  1  0.928708  0.357672  0.714595  1
  O  O18  1  0.782661  0.566696  0.638808  1
  O  O19  1  0.073597  0.144392  0.784282  1
  O  O20  1  0.357672  0.714595  0.928708  1
  O  O21  1  0.285405  0.071292  0.642328  1
  O  O22  1  0.855608  0.215718  0.926403  1
  O  O23  1  0.144392  0.784282  0.073597  1
  O  O24  1  0.714595  0.928708  0.357672  1
  O  O25  1  0.500000  0.500000  0.000000  1
  O  O26  1  0.642328  0.285405  0.071292  1
  O  O27  1  0.926403  0.855608  0.215718  1
  O  O28  1  0.071292  0.642328  0.285405  1
  O  O29  1  0.638808  0.782661  0.566696  1
  O  O30  1  0.217339  0.433304  0.361192  1
  O  O31  1  0.433304  0.361192  0.217339  1
  O  O32  1  1.000000  0.500000  0.500000  1
  O  O33  1  0.215718  0.926403  0.855608  1
