# generated using pymatgen
data_SrLaCl5
_symmetry_space_group_name_H-M   'P 1'
_cell_length_a   9.89780678
_cell_length_b   15.18477346
_cell_length_c   10.53988689
_cell_angle_alpha   90.00000000
_cell_angle_beta   101.42011449
_cell_angle_gamma   90.00000000
_symmetry_Int_Tables_number   1
_chemical_formula_structural   SrLaCl5
_chemical_formula_sum   'Sr8 La8 Cl40'
_cell_volume   1552.73985611
_cell_formula_units_Z   8
loop_
 _symmetry_equiv_pos_site_id
 _symmetry_equiv_pos_as_xyz
  1  'x, y, z'
loop_
 _atom_site_type_symbol
 _atom_site_label
 _atom_site_symmetry_multiplicity
 _atom_site_fract_x
 _atom_site_fract_y
 _atom_site_fract_z
 _atom_site_occupancy
  Sr  Sr0  1  0.210835  0.975641  0.214606  1
  Sr  Sr1  1  0.312627  0.518255  0.164115  1
  Sr  Sr2  1  0.210835  0.524359  0.714606  1
  Sr  Sr3  1  0.312627  0.981745  0.664115  1
  Sr  Sr4  1  0.687373  0.018255  0.335885  1
  Sr  Sr5  1  0.789165  0.475641  0.285394  1
  Sr  Sr6  1  0.687373  0.481745  0.835885  1
  Sr  Sr7  1  0.789165  0.024359  0.785394  1
  La  La8  1  0.006699  0.233934  0.112164  1
  La  La9  1  0.006699  0.266066  0.612164  1
  La  La10  1  0.436300  0.263523  0.459486  1
  La  La11  1  0.436300  0.236477  0.959486  1
  La  La12  1  0.563700  0.763523  0.040514  1
  La  La13  1  0.563700  0.736477  0.540514  1
  La  La14  1  0.993301  0.733934  0.387836  1
  La  La15  1  0.993301  0.766066  0.887836  1
  Cl  Cl16  1  0.093671  0.917205  0.448215  1
  Cl  Cl17  1  0.078582  0.555944  0.352851  1
  Cl  Cl18  1  0.093671  0.582795  0.948215  1
  Cl  Cl19  1  0.076151  0.802291  0.163850  1
  Cl  Cl20  1  0.078582  0.944056  0.852851  1
  Cl  Cl21  1  0.198063  0.147430  0.361348  1
  Cl  Cl22  1  0.076151  0.697709  0.663850  1
  Cl  Cl23  1  0.280208  0.730060  0.461799  1
  Cl  Cl24  1  0.198063  0.352570  0.861348  1
  Cl  Cl25  1  0.221154  0.128913  0.030046  1
  Cl  Cl26  1  0.256290  0.331480  0.199320  1
  Cl  Cl27  1  0.280208  0.769940  0.961799  1
  Cl  Cl28  1  0.221154  0.371087  0.530046  1
  Cl  Cl29  1  0.256290  0.168520  0.699320  1
  Cl  Cl30  1  0.479287  0.672673  0.255217  1
  Cl  Cl31  1  0.462918  0.907311  0.434099  1
  Cl  Cl32  1  0.527787  0.432857  0.380342  1
  Cl  Cl33  1  0.472213  0.932857  0.119658  1
  Cl  Cl34  1  0.537082  0.407311  0.065901  1
  Cl  Cl35  1  0.520713  0.172673  0.244783  1
  Cl  Cl36  1  0.479287  0.827327  0.755217  1
  Cl  Cl37  1  0.462918  0.592689  0.934099  1
  Cl  Cl38  1  0.527787  0.067143  0.880342  1
  Cl  Cl39  1  0.472213  0.567143  0.619658  1
  Cl  Cl40  1  0.537082  0.092689  0.565901  1
  Cl  Cl41  1  0.520713  0.327327  0.744783  1
  Cl  Cl42  1  0.743710  0.831480  0.300680  1
  Cl  Cl43  1  0.778846  0.628913  0.469954  1
  Cl  Cl44  1  0.719792  0.230060  0.038201  1
  Cl  Cl45  1  0.743710  0.668520  0.800680  1
  Cl  Cl46  1  0.778846  0.871087  0.969954  1
  Cl  Cl47  1  0.801937  0.647430  0.138652  1
  Cl  Cl48  1  0.719792  0.269940  0.538201  1
  Cl  Cl49  1  0.923849  0.302291  0.336150  1
  Cl  Cl50  1  0.801937  0.852570  0.638652  1
  Cl  Cl51  1  0.921418  0.055944  0.147149  1
  Cl  Cl52  1  0.923849  0.197709  0.836150  1
  Cl  Cl53  1  0.906329  0.417205  0.051785  1
  Cl  Cl54  1  0.921418  0.444056  0.647149  1
  Cl  Cl55  1  0.906329  0.082795  0.551785  1
