# generated using pymatgen
data_Li3MnP2O9
_symmetry_space_group_name_H-M   'P 1'
_cell_length_a   6.86595067
_cell_length_b   7.12109601
_cell_length_c   7.89938345
_cell_angle_alpha   89.54649972
_cell_angle_beta   115.67569732
_cell_angle_gamma   92.18940889
_symmetry_Int_Tables_number   1
_chemical_formula_structural   Li3MnP2O9
_chemical_formula_sum   'Li6 Mn2 P4 O18'
_cell_volume   347.81964716
_cell_formula_units_Z   2
loop_
 _symmetry_equiv_pos_site_id
 _symmetry_equiv_pos_as_xyz
  1  'x, y, z'
loop_
 _atom_site_type_symbol
 _atom_site_label
 _atom_site_symmetry_multiplicity
 _atom_site_fract_x
 _atom_site_fract_y
 _atom_site_fract_z
 _atom_site_occupancy
  Li  Li0  1  0.142624  0.238819  0.207495  1
  Li  Li1  1  0.384805  0.300658  0.728807  1
  Li  Li2  1  0.601190  0.697554  0.267702  1
  Li  Li3  1  0.912710  0.765700  0.792328  1
  Li  Li4  1  0.000529  0.499861  0.505115  1
  Li  Li5  1  0.760381  0.995407  0.000600  1
  Mn  Mn6  1  0.496347  0.001734  0.497537  1
  Mn  Mn7  1  0.000469  0.998023  0.504992  1
  P  P8  1  0.109422  0.710444  0.250718  1
  P  P9  1  0.386602  0.760326  0.794494  1
  P  P10  1  0.618484  0.238713  0.204883  1
  P  P11  1  0.877382  0.289300  0.749954  1
  O  O12  1  0.009170  0.228844  0.636973  1
  O  O13  1  0.176355  0.875785  0.741545  1
  O  O14  1  0.994876  0.802299  0.058993  1
  O  O15  1  0.323497  0.567159  0.700922  1
  O  O16  1  0.514910  0.238065  0.991493  1
  O  O17  1  0.110758  0.497096  0.253682  1
  O  O18  1  0.237769  0.098791  0.474043  1
  O  O19  1  0.547084  0.874491  0.730131  1
  O  O20  1  0.354102  0.781469  0.342394  1
  O  O21  1  0.629999  0.227555  0.639555  1
  O  O22  1  0.450313  0.143159  0.268216  1
  O  O23  1  0.755865  0.900846  0.524970  1
  O  O24  1  0.892941  0.502153  0.745149  1
  O  O25  1  0.512064  0.763628  0.007775  1
  O  O26  1  0.686078  0.432842  0.298597  1
  O  O27  1  0.957621  0.194790  0.941059  1
  O  O28  1  0.821011  0.111047  0.262565  1
  O  O29  1  0.992835  0.763438  0.377316  1
