# generated using pymatgen
data_Li4Mn2Cu3O10
_symmetry_space_group_name_H-M   'P 1'
_cell_length_a   5.04322025
_cell_length_b   5.38735019
_cell_length_c   7.60300404
_cell_angle_alpha   104.48031880
_cell_angle_beta   102.75673072
_cell_angle_gamma   105.40019035
_symmetry_Int_Tables_number   1
_chemical_formula_structural   Li4Mn2Cu3O10
_chemical_formula_sum   'Li4 Mn2 Cu3 O10'
_cell_volume   183.47273974
_cell_formula_units_Z   1
loop_
 _symmetry_equiv_pos_site_id
 _symmetry_equiv_pos_as_xyz
  1  'x, y, z'
loop_
 _atom_site_type_symbol
 _atom_site_label
 _atom_site_symmetry_multiplicity
 _atom_site_fract_x
 _atom_site_fract_y
 _atom_site_fract_z
 _atom_site_occupancy
  Li  Li0  1  0.222722  0.899928  0.396555  1
  Li  Li1  1  0.395832  0.292948  0.776480  1
  Li  Li2  1  0.604168  0.707052  0.223520  1
  Li  Li3  1  0.777278  0.100072  0.603445  1
  Mn  Mn4  1  0.096492  0.675583  0.690752  1
  Mn  Mn5  1  0.903508  0.324417  0.309248  1
  Cu  Cu6  1  0.000000  0.500000  0.000000  1
  Cu  Cu7  1  0.694320  0.882968  0.896296  1
  Cu  Cu8  1  0.305680  0.117032  0.103704  1
  O  O9  1  0.053708  0.025651  0.841453  1
  O  O10  1  0.340744  0.663271  0.924396  1
  O  O11  1  0.116085  0.330726  0.548242  1
  O  O12  1  0.447221  0.905744  0.677696  1
  O  O13  1  0.214729  0.521213  0.236222  1
  O  O14  1  0.785271  0.478787  0.763778  1
  O  O15  1  0.552779  0.094256  0.322304  1
  O  O16  1  0.883915  0.669274  0.451758  1
  O  O17  1  0.659256  0.336729  0.075604  1
  O  O18  1  0.946292  0.974349  0.158547  1
