# generated using pymatgen
data_Li8PtO6
_symmetry_space_group_name_H-M   'P 1'
_cell_length_a   5.96489609
_cell_length_b   5.96489609
_cell_length_c   5.96489609
_cell_angle_alpha   54.77214500
_cell_angle_beta   54.77214500
_cell_angle_gamma   54.77214500
_symmetry_Int_Tables_number   1
_chemical_formula_structural   Li8PtO6
_chemical_formula_sum   'Li8 Pt1 O6'
_cell_volume   131.79911411
_cell_formula_units_Z   1
loop_
 _symmetry_equiv_pos_site_id
 _symmetry_equiv_pos_as_xyz
  1  'x, y, z'
loop_
 _atom_site_type_symbol
 _atom_site_label
 _atom_site_symmetry_multiplicity
 _atom_site_fract_x
 _atom_site_fract_y
 _atom_site_fract_z
 _atom_site_occupancy
  Li  Li0  1  0.657276  0.657276  0.657276  1
  Li  Li1  1  0.098672  0.767091  0.485744  1
  Li  Li2  1  0.485744  0.098672  0.767091  1
  Li  Li3  1  0.767091  0.485744  0.098672  1
  Li  Li4  1  0.901328  0.232909  0.514256  1
  Li  Li5  1  0.514256  0.901328  0.232909  1
  Li  Li6  1  0.342724  0.342724  0.342724  1
  Li  Li7  1  0.232909  0.514256  0.901328  1
  Pt  Pt8  1  0.000000  0.000000  0.000000  1
  O  O9  1  0.093055  0.383923  0.763564  1
  O  O10  1  0.616077  0.236436  0.906945  1
  O  O11  1  0.906945  0.616077  0.236436  1
  O  O12  1  0.763564  0.093055  0.383923  1
  O  O13  1  0.383923  0.763564  0.093055  1
  O  O14  1  0.236436  0.906945  0.616077  1
