# generated using pymatgen
data_Na6Mn2B4PO16
_symmetry_space_group_name_H-M   'P 1'
_cell_length_a   9.86549259
_cell_length_b   9.86549259
_cell_length_c   9.86549259
_cell_angle_alpha   60.00000000
_cell_angle_beta   60.00000000
_cell_angle_gamma   60.00000000
_symmetry_Int_Tables_number   1
_chemical_formula_structural   Na6Mn2B4PO16
_chemical_formula_sum   'Na12 Mn4 B8 P2 O32'
_cell_volume   678.95552424
_cell_formula_units_Z   2
loop_
 _symmetry_equiv_pos_site_id
 _symmetry_equiv_pos_as_xyz
  1  'x, y, z'
loop_
 _atom_site_type_symbol
 _atom_site_label
 _atom_site_symmetry_multiplicity
 _atom_site_fract_x
 _atom_site_fract_y
 _atom_site_fract_z
 _atom_site_occupancy
  Na  Na0  1  0.035440  0.464560  0.464560  1
  Na  Na1  1  0.035440  0.035440  0.464560  1
  Na  Na2  1  0.464560  0.035440  0.464560  1
  Na  Na3  1  0.785440  0.214560  0.214560  1
  Na  Na4  1  0.035440  0.464560  0.035440  1
  Na  Na5  1  0.464560  0.464560  0.035440  1
  Na  Na6  1  0.785440  0.785440  0.214560  1
  Na  Na7  1  0.214560  0.785440  0.214560  1
  Na  Na8  1  0.464560  0.035440  0.035440  1
  Na  Na9  1  0.214560  0.214560  0.785440  1
  Na  Na10  1  0.785440  0.214560  0.785440  1
  Na  Na11  1  0.214560  0.785440  0.785440  1
  Mn  Mn12  1  0.625000  0.625000  0.625000  1
  Mn  Mn13  1  0.125000  0.625000  0.625000  1
  Mn  Mn14  1  0.625000  0.125000  0.625000  1
  Mn  Mn15  1  0.625000  0.625000  0.125000  1
  B  B16  1  0.835361  0.835361  0.493917  1
  B  B17  1  0.414639  0.414639  0.414639  1
  B  B18  1  0.756083  0.414639  0.414639  1
  B  B19  1  0.414639  0.756083  0.414639  1
  B  B20  1  0.835361  0.493917  0.835361  1
  B  B21  1  0.493917  0.835361  0.835361  1
  B  B22  1  0.835361  0.835361  0.835361  1
  B  B23  1  0.414639  0.414639  0.756083  1
  P  P24  1  1.000000  1.000000  1.000000  1
  P  P25  1  0.250000  0.250000  0.250000  1
  O  O26  1  0.806604  0.715617  0.487070  1
  O  O27  1  0.990709  0.806604  0.487070  1
  O  O28  1  0.715617  0.990709  0.487070  1
  O  O29  1  0.443396  0.259291  0.534383  1
  O  O30  1  0.064220  0.807340  0.064220  1
  O  O31  1  0.762930  0.259291  0.443396  1
  O  O32  1  0.762930  0.443396  0.534383  1
  O  O33  1  0.807340  0.064220  0.064220  1
  O  O34  1  0.064220  0.064220  0.064220  1
  O  O35  1  0.259291  0.534383  0.443396  1
  O  O36  1  0.534383  0.443396  0.259291  1
  O  O37  1  0.064220  0.064220  0.807340  1
  O  O38  1  0.259291  0.762930  0.534383  1
  O  O39  1  0.762930  0.534383  0.259291  1
  O  O40  1  0.534383  0.762930  0.443396  1
  O  O41  1  0.806604  0.487070  0.990709  1
  O  O42  1  0.443396  0.762930  0.259291  1
  O  O43  1  0.715617  0.487070  0.806604  1
  O  O44  1  0.487070  0.715617  0.990709  1
  O  O45  1  0.990709  0.487070  0.715617  1
  O  O46  1  0.185780  0.185780  0.442660  1
  O  O47  1  0.715617  0.806604  0.990709  1
  O  O48  1  0.990709  0.715617  0.806604  1
  O  O49  1  0.185780  0.185780  0.185780  1
  O  O50  1  0.442660  0.185780  0.185780  1
  O  O51  1  0.487070  0.806604  0.715617  1
  O  O52  1  0.487070  0.990709  0.806604  1
  O  O53  1  0.185780  0.442660  0.185780  1
  O  O54  1  0.806604  0.990709  0.715617  1
  O  O55  1  0.534383  0.259291  0.762930  1
  O  O56  1  0.259291  0.443396  0.762930  1
  O  O57  1  0.443396  0.534383  0.762930  1
