# generated using pymatgen
data_Li21(CoO4)4
_symmetry_space_group_name_H-M   'P 1'
_cell_length_a   9.08905265
_cell_length_b   9.37424577
_cell_length_c   9.43185011
_cell_angle_alpha   90.00000000
_cell_angle_beta   90.19366594
_cell_angle_gamma   90.00000000
_symmetry_Int_Tables_number   1
_chemical_formula_structural   Li21(CoO4)4
_chemical_formula_sum   'Li42 Co8 O32'
_cell_volume   803.61746021
_cell_formula_units_Z   2
loop_
 _symmetry_equiv_pos_site_id
 _symmetry_equiv_pos_as_xyz
  1  'x, y, z'
loop_
 _atom_site_type_symbol
 _atom_site_label
 _atom_site_symmetry_multiplicity
 _atom_site_fract_x
 _atom_site_fract_y
 _atom_site_fract_z
 _atom_site_occupancy
  Li  Li0  1  0.888140  0.114065  0.635942  1
  Li  Li1  1  0.882737  0.891216  0.864943  1
  Li  Li2  1  0.888140  0.885935  0.135942  1
  Li  Li3  1  0.882737  0.108784  0.364943  1
  Li  Li4  1  0.879279  0.358188  0.840146  1
  Li  Li5  1  0.879279  0.641812  0.340146  1
  Li  Li6  1  0.847420  0.627871  0.898184  1
  Li  Li7  1  0.847420  0.372129  0.398184  1
  Li  Li8  1  0.672598  0.136891  0.885119  1
  Li  Li9  1  0.672598  0.863109  0.385119  1
  Li  Li10  1  0.655664  0.381887  0.607433  1
  Li  Li11  1  0.633089  0.408613  0.880235  1
  Li  Li12  1  0.655664  0.618113  0.107433  1
  Li  Li13  1  0.633089  0.591387  0.380235  1
  Li  Li14  1  0.612496  0.866968  0.860968  1
  Li  Li15  1  0.612496  0.133032  0.360968  1
  Li  Li16  1  0.648449  0.854440  0.622271  1
  Li  Li17  1  0.648449  0.145560  0.122271  1
  Li  Li18  1  0.604299  0.619394  0.647388  1
  Li  Li19  1  0.604299  0.380606  0.147388  1
  Li  Li20  1  0.393984  0.114040  0.851024  1
  Li  Li21  1  0.393984  0.885960  0.351024  1
  Li  Li22  1  0.386358  0.354946  0.885040  1
  Li  Li23  1  0.386358  0.645054  0.385040  1
  Li  Li24  1  0.371135  0.896922  0.620437  1
  Li  Li25  1  0.380427  0.367029  0.638430  1
  Li  Li26  1  0.371135  0.103078  0.120437  1
  Li  Li27  1  0.380427  0.632971  0.138430  1
  Li  Li28  1  0.337433  0.870681  0.886751  1
  Li  Li29  1  0.337433  0.129319  0.386751  1
  Li  Li30  1  0.331626  0.631247  0.625294  1
  Li  Li31  1  0.331626  0.368753  0.125294  1
  Li  Li32  1  0.161261  0.135107  0.604911  1
  Li  Li33  1  0.134936  0.371364  0.892543  1
  Li  Li34  1  0.161261  0.864893  0.104911  1
  Li  Li35  1  0.134936  0.628636  0.392543  1
  Li  Li36  1  0.119733  0.627994  0.862737  1
  Li  Li37  1  0.116099  0.395045  0.625869  1
  Li  Li38  1  0.119733  0.372006  0.362737  1
  Li  Li39  1  0.116099  0.604955  0.125869  1
  Li  Li40  1  0.101173  0.865021  0.652141  1
  Li  Li41  1  0.101173  0.134979  0.152141  1
  Co  Co42  1  0.888638  0.619519  0.621473  1
  Co  Co43  1  0.888638  0.380481  0.121473  1
  Co  Co44  1  0.606484  0.118809  0.624558  1
  Co  Co45  1  0.606484  0.881191  0.124558  1
  Co  Co46  1  0.397588  0.618475  0.878948  1
  Co  Co47  1  0.397588  0.381525  0.378948  1
  Co  Co48  1  0.110849  0.103340  0.875715  1
  Co  Co49  1  0.110849  0.896660  0.375715  1
  O  O50  1  0.990096  0.489229  0.988383  1
  O  O51  1  0.990096  0.510771  0.488383  1
  O  O52  1  0.974007  0.733471  0.756104  1
  O  O53  1  0.974007  0.266529  0.256104  1
  O  O54  1  0.744587  0.714922  0.504427  1
  O  O55  1  0.758086  0.504311  0.742232  1
  O  O56  1  0.744587  0.285078  0.004427  1
  O  O57  1  0.758086  0.495689  0.242232  1
  O  O58  1  0.741346  0.781505  0.005679  1
  O  O59  1  0.741346  0.218495  0.505679  1
  O  O60  1  0.729755  0.002589  0.742620  1
  O  O61  1  0.729755  0.997411  0.242620  1
  O  O62  1  0.527624  0.251991  0.753705  1
  O  O63  1  0.527624  0.748009  0.253705  1
  O  O64  1  0.517024  0.005071  0.994940  1
  O  O65  1  0.517024  0.994929  0.494940  1
  O  O66  1  0.491060  0.510241  0.515156  1
  O  O67  1  0.491060  0.489759  0.015156  1
  O  O68  1  0.478893  0.759783  0.742667  1
  O  O69  1  0.478893  0.240217  0.242667  1
  O  O70  1  0.261392  0.486420  0.766479  1
  O  O71  1  0.253463  0.222932  0.986630  1
  O  O72  1  0.254036  0.279561  0.499094  1
  O  O73  1  0.261392  0.513580  0.266479  1
  O  O74  1  0.244895  0.000451  0.753311  1
  O  O75  1  0.253463  0.777068  0.486630  1
  O  O76  1  0.254036  0.720439  0.999094  1
  O  O77  1  0.244895  0.999549  0.253311  1
  O  O78  1  0.029258  0.236711  0.753310  1
  O  O79  1  0.029258  0.763289  0.253310  1
  O  O80  1  0.020193  0.007721  0.504477  1
  O  O81  1  0.020193  0.992279  0.004477  1
