# generated using pymatgen
data_VF4
_symmetry_space_group_name_H-M   'P 1'
_cell_length_a   5.92242386
_cell_length_b   5.10403070
_cell_length_c   9.69577292
_cell_angle_alpha   90.00000000
_cell_angle_beta   92.19811403
_cell_angle_gamma   90.00000000
_symmetry_Int_Tables_number   1
_chemical_formula_structural   VF4
_chemical_formula_sum   'V4 F16'
_cell_volume   292.87042607
_cell_formula_units_Z   4
loop_
 _symmetry_equiv_pos_site_id
 _symmetry_equiv_pos_as_xyz
  1  'x, y, z'
loop_
 _atom_site_type_symbol
 _atom_site_label
 _atom_site_symmetry_multiplicity
 _atom_site_fract_x
 _atom_site_fract_y
 _atom_site_fract_z
 _atom_site_occupancy
  V  V0  1  0.358457  0.021213  0.634435  1
  V  V1  1  0.358457  0.478787  0.134435  1
  V  V2  1  0.641543  0.521213  0.865565  1
  V  V3  1  0.641543  0.978787  0.365565  1
  F  F4  1  0.120751  0.854937  0.689424  1
  F  F5  1  0.120751  0.645063  0.189424  1
  F  F6  1  0.237967  0.318282  0.571034  1
  F  F7  1  0.237967  0.181718  0.071034  1
  F  F8  1  0.345069  0.616597  0.944444  1
  F  F9  1  0.345069  0.883403  0.444444  1
  F  F10  1  0.460396  0.200210  0.799270  1
  F  F11  1  0.460396  0.299790  0.299270  1
  F  F12  1  0.539604  0.700210  0.700730  1
  F  F13  1  0.539604  0.799790  0.200730  1
  F  F14  1  0.654931  0.116597  0.555556  1
  F  F15  1  0.654931  0.383403  0.055556  1
  F  F16  1  0.762033  0.818282  0.928966  1
  F  F17  1  0.762033  0.681718  0.428966  1
  F  F18  1  0.879249  0.354937  0.810576  1
  F  F19  1  0.879249  0.145063  0.310576  1
