# generated using pymatgen
data_Li2Mn2(SiO3)3
_symmetry_space_group_name_H-M   'P 1'
_cell_length_a   6.35629118
_cell_length_b   9.73064627
_cell_length_c   12.45932613
_cell_angle_alpha   90.00000000
_cell_angle_beta   90.00000000
_cell_angle_gamma   90.00000000
_symmetry_Int_Tables_number   1
_chemical_formula_structural   Li2Mn2(SiO3)3
_chemical_formula_sum   'Li8 Mn8 Si12 O36'
_cell_volume   770.61955102
_cell_formula_units_Z   4
loop_
 _symmetry_equiv_pos_site_id
 _symmetry_equiv_pos_as_xyz
  1  'x, y, z'
loop_
 _atom_site_type_symbol
 _atom_site_label
 _atom_site_symmetry_multiplicity
 _atom_site_fract_x
 _atom_site_fract_y
 _atom_site_fract_z
 _atom_site_occupancy
  Li  Li0  1  0.859685  0.441722  0.086388  1
  Li  Li1  1  0.859685  0.058278  0.086388  1
  Li  Li2  1  0.359685  0.941722  0.413612  1
  Li  Li3  1  0.359685  0.558278  0.413612  1
  Li  Li4  1  0.640315  0.441722  0.586388  1
  Li  Li5  1  0.640315  0.058278  0.586388  1
  Li  Li6  1  0.140315  0.941722  0.913612  1
  Li  Li7  1  0.140315  0.558278  0.913612  1
  Mn  Mn8  1  0.307580  0.504567  0.156365  1
  Mn  Mn9  1  0.307580  0.995433  0.156365  1
  Mn  Mn10  1  0.807580  0.004567  0.343635  1
  Mn  Mn11  1  0.807580  0.495433  0.343635  1
  Mn  Mn12  1  0.192420  0.504567  0.656365  1
  Mn  Mn13  1  0.192420  0.995433  0.656365  1
  Mn  Mn14  1  0.692420  0.004567  0.843635  1
  Mn  Mn15  1  0.692420  0.495433  0.843635  1
  Si  Si16  1  0.477923  0.250000  0.032818  1
  Si  Si17  1  0.956516  0.750000  0.076521  1
  Si  Si18  1  0.572813  0.750000  0.217223  1
  Si  Si19  1  0.072813  0.250000  0.282777  1
  Si  Si20  1  0.456516  0.250000  0.423479  1
  Si  Si21  1  0.977923  0.750000  0.467182  1
  Si  Si22  1  0.022077  0.250000  0.532818  1
  Si  Si23  1  0.543484  0.750000  0.576521  1
  Si  Si24  1  0.927187  0.750000  0.717223  1
  Si  Si25  1  0.427187  0.250000  0.782777  1
  Si  Si26  1  0.043484  0.250000  0.923479  1
  Si  Si27  1  0.522077  0.750000  0.967182  1
  O  O28  1  0.215157  0.250000  0.025182  1
  O  O29  1  0.078716  0.894825  0.066888  1
  O  O30  1  0.078716  0.605175  0.066888  1
  O  O31  1  0.552545  0.390702  0.090759  1
  O  O32  1  0.552545  0.109298  0.090759  1
  O  O33  1  0.454932  0.750000  0.098155  1
  O  O34  1  0.010316  0.105598  0.224490  1
  O  O35  1  0.010316  0.394402  0.224490  1
  O  O36  1  0.828073  0.750000  0.193227  1
  O  O37  1  0.328073  0.250000  0.306773  1
  O  O38  1  0.510316  0.894402  0.275510  1
  O  O39  1  0.510316  0.605598  0.275510  1
  O  O40  1  0.954932  0.250000  0.401845  1
  O  O41  1  0.052545  0.890702  0.409241  1
  O  O42  1  0.052545  0.609298  0.409241  1
  O  O43  1  0.578716  0.394825  0.433112  1
  O  O44  1  0.578716  0.105175  0.433112  1
  O  O45  1  0.715157  0.750000  0.474818  1
  O  O46  1  0.284843  0.250000  0.525182  1
  O  O47  1  0.421284  0.894825  0.566888  1
  O  O48  1  0.421284  0.605175  0.566888  1
  O  O49  1  0.947455  0.390702  0.590759  1
  O  O50  1  0.947455  0.109298  0.590759  1
  O  O51  1  0.045068  0.750000  0.598155  1
  O  O52  1  0.489684  0.394402  0.724490  1
  O  O53  1  0.489684  0.105598  0.724490  1
  O  O54  1  0.671927  0.750000  0.693227  1
  O  O55  1  0.171927  0.250000  0.806773  1
  O  O56  1  0.989684  0.894402  0.775510  1
  O  O57  1  0.989684  0.605598  0.775510  1
  O  O58  1  0.545068  0.250000  0.901845  1
  O  O59  1  0.447455  0.890702  0.909241  1
  O  O60  1  0.447455  0.609298  0.909241  1
  O  O61  1  0.921284  0.394825  0.933112  1
  O  O62  1  0.921284  0.105175  0.933112  1
  O  O63  1  0.784843  0.750000  0.974818  1
