# generated using pymatgen
data_TmCuPbSe3
_symmetry_space_group_name_H-M   'P 1'
_cell_length_a   7.09209992
_cell_length_b   7.09209992
_cell_length_c   10.54784182
_cell_angle_alpha   90.00000000
_cell_angle_beta   90.00000000
_cell_angle_gamma   146.84398503
_symmetry_Int_Tables_number   1
_chemical_formula_structural   TmCuPbSe3
_chemical_formula_sum   'Tm2 Cu2 Pb2 Se6'
_cell_volume   290.16007483
_cell_formula_units_Z   2
loop_
 _symmetry_equiv_pos_site_id
 _symmetry_equiv_pos_as_xyz
  1  'x, y, z'
loop_
 _atom_site_type_symbol
 _atom_site_label
 _atom_site_symmetry_multiplicity
 _atom_site_fract_x
 _atom_site_fract_y
 _atom_site_fract_z
 _atom_site_occupancy
  Tm  Tm0  1  0.499208  0.500792  0.497439  1
  Tm  Tm1  1  0.500792  0.499208  0.997439  1
  Cu  Cu2  1  0.033915  0.966085  0.245224  1
  Cu  Cu3  1  0.966085  0.033915  0.745224  1
  Pb  Pb4  1  0.257161  0.742839  0.756556  1
  Pb  Pb5  1  0.742839  0.257161  0.256556  1
  Se  Se6  1  0.141328  0.858672  0.431842  1
  Se  Se7  1  0.141672  0.858328  0.056753  1
  Se  Se8  1  0.858672  0.141328  0.931842  1
  Se  Se9  1  0.858328  0.141672  0.556753  1
  Se  Se10  1  0.423605  0.576395  0.247008  1
  Se  Se11  1  0.576395  0.423605  0.747008  1
