# generated using pymatgen
data_Mg17Al11Pd
_symmetry_space_group_name_H-M   'P 1'
_cell_length_a   9.07937330
_cell_length_b   9.07937330
_cell_length_c   8.97777034
_cell_angle_alpha   70.71931676
_cell_angle_beta   109.28068324
_cell_angle_gamma   70.63681332
_symmetry_Int_Tables_number   1
_chemical_formula_structural   Mg17Al11Pd
_chemical_formula_sum   'Mg17 Al11 Pd1'
_cell_volume   573.12876640
_cell_formula_units_Z   1
loop_
 _symmetry_equiv_pos_site_id
 _symmetry_equiv_pos_as_xyz
  1  'x, y, z'
loop_
 _atom_site_type_symbol
 _atom_site_label
 _atom_site_symmetry_multiplicity
 _atom_site_fract_x
 _atom_site_fract_y
 _atom_site_fract_z
 _atom_site_occupancy
  Mg  Mg0  1  0.315203  0.684797  0.709283  1
  Mg  Mg1  1  0.609187  0.390813  0.284670  1
  Mg  Mg2  1  0.998685  0.001315  0.650970  1
  Mg  Mg3  1  0.998132  0.001868  0.003814  1
  Mg  Mg4  1  0.347495  0.652505  0.344830  1
  Mg  Mg5  1  0.405122  0.316155  0.001421  1
  Mg  Mg6  1  0.684581  0.005054  0.391078  1
  Mg  Mg7  1  0.283907  0.399878  0.600396  1
  Mg  Mg8  1  0.658854  0.002647  0.004272  1
  Mg  Mg9  1  0.317166  0.285538  0.315864  1
  Mg  Mg10  1  0.000681  0.600685  0.684714  1
  Mg  Mg11  1  0.399315  0.999319  0.684714  1
  Mg  Mg12  1  0.714462  0.682834  0.315864  1
  Mg  Mg13  1  0.997353  0.341146  0.004272  1
  Mg  Mg14  1  0.600122  0.716093  0.600396  1
  Mg  Mg15  1  0.994946  0.315419  0.391078  1
  Mg  Mg16  1  0.683845  0.594878  0.001421  1
  Al  Al17  1  0.638088  0.361912  0.831555  1
  Al  Al18  1  0.185340  0.633569  0.998718  1
  Al  Al19  1  0.994299  0.824169  0.361973  1
  Al  Al20  1  0.633427  0.182804  0.635116  1
  Al  Al21  1  0.815245  0.820045  0.815938  1
  Al  Al22  1  0.001597  0.633181  0.188090  1
  Al  Al23  1  0.366819  0.998403  0.188090  1
  Al  Al24  1  0.179955  0.184755  0.815938  1
  Al  Al25  1  0.817196  0.366573  0.635116  1
  Al  Al26  1  0.175831  0.005701  0.361973  1
  Al  Al27  1  0.366431  0.814660  0.998718  1
  Pd  Pd28  1  0.816502  0.183498  0.179805  1
