# generated using pymatgen
data_LiMn2PO6
_symmetry_space_group_name_H-M   'P 1'
_cell_length_a   5.18252433
_cell_length_b   7.77773574
_cell_length_c   11.84115204
_cell_angle_alpha   90.00000000
_cell_angle_beta   90.00000000
_cell_angle_gamma   90.00000000
_symmetry_Int_Tables_number   1
_chemical_formula_structural   LiMn2PO6
_chemical_formula_sum   'Li4 Mn8 P4 O24'
_cell_volume   477.29676448
_cell_formula_units_Z   4
loop_
 _symmetry_equiv_pos_site_id
 _symmetry_equiv_pos_as_xyz
  1  'x, y, z'
loop_
 _atom_site_type_symbol
 _atom_site_label
 _atom_site_symmetry_multiplicity
 _atom_site_fract_x
 _atom_site_fract_y
 _atom_site_fract_z
 _atom_site_occupancy
  Li  Li0  1  0.250000  0.016040  0.060462  1
  Li  Li1  1  0.750000  0.516040  0.439538  1
  Li  Li2  1  0.250000  0.483960  0.560462  1
  Li  Li3  1  0.750000  0.983960  0.939538  1
  Mn  Mn4  1  0.750000  0.289756  0.075156  1
  Mn  Mn5  1  0.750000  0.687549  0.090044  1
  Mn  Mn6  1  0.250000  0.187549  0.409956  1
  Mn  Mn7  1  0.250000  0.789756  0.424844  1
  Mn  Mn8  1  0.750000  0.210244  0.575156  1
  Mn  Mn9  1  0.750000  0.812451  0.590044  1
  Mn  Mn10  1  0.250000  0.312451  0.909956  1
  Mn  Mn11  1  0.250000  0.710244  0.924844  1
  P  P12  1  0.250000  0.470409  0.204739  1
  P  P13  1  0.750000  0.970409  0.295261  1
  P  P14  1  0.250000  0.029591  0.704739  1
  P  P15  1  0.750000  0.529591  0.795261  1
  O  O16  1  0.499399  0.820325  0.015176  1
  O  O17  1  0.000601  0.820325  0.015176  1
  O  O18  1  0.003679  0.486334  0.124145  1
  O  O19  1  0.496321  0.486334  0.124145  1
  O  O20  1  0.750000  0.115001  0.210066  1
  O  O21  1  0.250000  0.287647  0.250046  1
  O  O22  1  0.750000  0.787647  0.249954  1
  O  O23  1  0.250000  0.615001  0.289934  1
  O  O24  1  0.503679  0.986334  0.375855  1
  O  O25  1  0.996321  0.986334  0.375855  1
  O  O26  1  0.999399  0.320325  0.484824  1
  O  O27  1  0.500601  0.320325  0.484824  1
  O  O28  1  0.499399  0.679675  0.515176  1
  O  O29  1  0.000601  0.679675  0.515176  1
  O  O30  1  0.003679  0.013666  0.624145  1
  O  O31  1  0.496321  0.013666  0.624145  1
  O  O32  1  0.750000  0.384999  0.710066  1
  O  O33  1  0.250000  0.212353  0.750046  1
  O  O34  1  0.750000  0.712353  0.749954  1
  O  O35  1  0.250000  0.884999  0.789934  1
  O  O36  1  0.503679  0.513666  0.875855  1
  O  O37  1  0.996321  0.513666  0.875855  1
  O  O38  1  0.999399  0.179675  0.984824  1
  O  O39  1  0.500601  0.179675  0.984824  1
