# generated using pymatgen
data_Li3Fe9O5F11
_symmetry_space_group_name_H-M   'P 1'
_cell_length_a   6.14335601
_cell_length_b   6.22469312
_cell_length_c   10.33002796
_cell_angle_alpha   75.36299341
_cell_angle_beta   74.34078906
_cell_angle_gamma   61.35659293
_symmetry_Int_Tables_number   1
_chemical_formula_structural   Li3Fe9O5F11
_chemical_formula_sum   'Li3 Fe9 O5 F11'
_cell_volume   330.24189602
_cell_formula_units_Z   1
loop_
 _symmetry_equiv_pos_site_id
 _symmetry_equiv_pos_as_xyz
  1  'x, y, z'
loop_
 _atom_site_type_symbol
 _atom_site_label
 _atom_site_symmetry_multiplicity
 _atom_site_fract_x
 _atom_site_fract_y
 _atom_site_fract_z
 _atom_site_occupancy
  Li  Li0  1  0.198154  0.174019  0.427210  1
  Li  Li1  1  0.998635  0.003672  0.994444  1
  Li  Li2  1  0.816742  0.817065  0.576741  1
  Fe  Fe3  1  0.998765  0.499872  0.996774  1
  Fe  Fe4  1  0.251134  0.727879  0.251959  1
  Fe  Fe5  1  0.242196  0.252181  0.750673  1
  Fe  Fe6  1  0.734608  0.260378  0.261343  1
  Fe  Fe7  1  0.275929  0.747352  0.745212  1
  Fe  Fe8  1  0.493331  0.991276  0.990799  1
  Fe  Fe9  1  0.751470  0.274176  0.744983  1
  Fe  Fe10  1  0.767772  0.729392  0.254255  1
  Fe  Fe11  1  0.489790  0.525467  0.990400  1
  O  O12  1  0.114012  0.650620  0.117712  1
  O  O13  1  0.625981  0.622825  0.126307  1
  O  O14  1  0.374595  0.370033  0.878839  1
  O  O15  1  0.340249  0.903047  0.874895  1
  O  O16  1  0.864652  0.360736  0.887925  1
  F  F17  1  0.094286  0.122594  0.131974  1
  F  F18  1  0.125425  0.112340  0.623578  1
  F  F19  1  0.130987  0.613198  0.645607  1
  F  F20  1  0.384491  0.364814  0.364876  1
  F  F21  1  0.637894  0.100251  0.121958  1
  F  F22  1  0.387169  0.867023  0.354494  1
  F  F23  1  0.627065  0.129544  0.640870  1
  F  F24  1  0.888235  0.378056  0.366153  1
  F  F25  1  0.634548  0.627726  0.628483  1
  F  F26  1  0.877631  0.889150  0.373367  1
  F  F27  1  0.874255  0.885313  0.878169  1
