# generated using pymatgen
data_Li9V2P4HO18
_symmetry_space_group_name_H-M   'P 1'
_cell_length_a   10.71743137
_cell_length_b   10.71743137
_cell_length_c   10.71743137
_cell_angle_alpha   142.56960386
_cell_angle_beta   97.32733424
_cell_angle_gamma   94.49487438
_symmetry_Int_Tables_number   1
_chemical_formula_structural   Li9V2P4HO18
_chemical_formula_sum   'Li18 V4 P8 H2 O36'
_cell_volume   708.39431924
_cell_formula_units_Z   2
loop_
 _symmetry_equiv_pos_site_id
 _symmetry_equiv_pos_as_xyz
  1  'x, y, z'
loop_
 _atom_site_type_symbol
 _atom_site_label
 _atom_site_symmetry_multiplicity
 _atom_site_fract_x
 _atom_site_fract_y
 _atom_site_fract_z
 _atom_site_occupancy
  Li  Li0  1  0.023388  0.244246  0.758266  1
  Li  Li1  1  0.023388  0.765122  0.279142  1
  Li  Li2  1  0.757511  0.879074  0.378437  1
  Li  Li3  1  0.998959  0.617240  0.881719  1
  Li  Li4  1  0.240583  0.876247  0.864336  1
  Li  Li5  1  0.504120  0.004120  0.500000  1
  Li  Li6  1  0.271688  0.271688  0.000000  1
  Li  Li7  1  0.747892  0.747892  0.000000  1
  Li  Li8  1  0.990237  0.990237  0.000000  1
  Li  Li9  1  0.271688  0.771688  0.500000  1
  Li  Li10  1  0.504120  0.504120  0.000000  1
  Li  Li11  1  0.990237  0.490237  0.500000  1
  Li  Li12  1  0.747892  0.247892  0.500000  1
  Li  Li13  1  0.011911  0.376247  0.135664  1
  Li  Li14  1  0.735522  0.117240  0.118281  1
  Li  Li15  1  0.500638  0.379074  0.621563  1
  Li  Li16  1  0.485980  0.744246  0.720858  1
  Li  Li17  1  0.485980  0.265122  0.241734  1
  V  V18  1  0.245459  0.998155  0.240748  1
  V  V19  1  0.757407  0.498155  0.252696  1
  V  V20  1  0.245459  0.504711  0.747304  1
  V  V21  1  0.757407  0.004711  0.759252  1
  P  P22  1  0.970589  0.108781  0.361808  1
  P  P23  1  0.756622  0.390608  0.866014  1
  P  P24  1  0.248472  0.389344  0.359128  1
  P  P25  1  0.485052  0.114841  0.870211  1
  P  P26  1  0.244630  0.614841  0.129789  1
  P  P27  1  0.030215  0.889344  0.640872  1
  P  P28  1  0.746973  0.608781  0.638192  1
  P  P29  1  0.524593  0.890608  0.133986  1
  H  H30  1  0.583724  0.689362  0.394362  1
  H  H31  1  0.294999  0.189362  0.605638  1
  O  O32  1  0.162110  0.510402  0.151708  1
  O  O33  1  0.154016  0.992659  0.661358  1
  O  O34  1  0.201815  0.445764  0.883276  1
  O  O35  1  0.201815  0.818539  0.256051  1
  O  O36  1  0.949433  0.684564  0.393817  1
  O  O37  1  0.949433  0.055616  0.764869  1
  O  O38  1  0.205396  0.757671  0.947725  1
  O  O39  1  0.678620  0.742979  0.435640  1
  O  O40  1  0.942683  0.019852  0.422831  1
  O  O41  1  0.905350  0.481903  0.923447  1
  O  O42  1  0.722797  0.524625  0.076955  1
  O  O43  1  0.046754  0.354174  0.568870  1
  O  O44  1  0.046754  0.977885  0.192580  1
  O  O45  1  0.722797  0.145841  0.698172  1
  O  O46  1  0.451727  0.173129  0.778598  1
  O  O47  1  0.096416  0.327094  0.269322  1
  O  O48  1  0.843469  0.088638  0.254830  1
  O  O49  1  0.665234  0.407350  0.757884  1
  O  O50  1  0.833808  0.588638  0.745170  1
  O  O51  1  0.649466  0.907350  0.242116  1
  O  O52  1  0.394531  0.673129  0.221402  1
  O  O53  1  0.057772  0.827094  0.730678  1
  O  O54  1  0.785305  0.477885  0.431130  1
  O  O55  1  0.785305  0.854174  0.807420  1
  O  O56  1  0.447670  0.645841  0.923045  1
  O  O57  1  0.447670  0.024625  0.301828  1
  O  O58  1  0.558456  0.981903  0.076553  1
  O  O59  1  0.597021  0.519852  0.577169  1
  O  O60  1  0.307339  0.242979  0.564360  1
  O  O61  1  0.809946  0.257671  0.052275  1
  O  O62  1  0.290747  0.555616  0.606183  1
  O  O63  1  0.290747  0.184564  0.235131  1
  O  O64  1  0.562488  0.318539  0.116724  1
  O  O65  1  0.562488  0.945764  0.743949  1
  O  O66  1  0.358694  0.010402  0.848292  1
  O  O67  1  0.331301  0.492659  0.338642  1
