# generated using pymatgen
data_Na4V2C4SO16
_symmetry_space_group_name_H-M   'P 1'
_cell_length_a   10.00972005
_cell_length_b   9.98926160
_cell_length_c   9.80560518
_cell_angle_alpha   60.74359542
_cell_angle_beta   60.53522111
_cell_angle_gamma   58.72118347
_symmetry_Int_Tables_number   1
_chemical_formula_structural   Na4V2C4SO16
_chemical_formula_sum   'Na8 V4 C8 S2 O32'
_cell_volume   692.77338921
_cell_formula_units_Z   2
loop_
 _symmetry_equiv_pos_site_id
 _symmetry_equiv_pos_as_xyz
  1  'x, y, z'
loop_
 _atom_site_type_symbol
 _atom_site_label
 _atom_site_symmetry_multiplicity
 _atom_site_fract_x
 _atom_site_fract_y
 _atom_site_fract_z
 _atom_site_occupancy
  Na  Na0  1  0.290728  0.709272  0.709272  1
  Na  Na1  1  0.708842  0.291158  0.708842  1
  Na  Na2  1  0.958842  0.541158  0.958842  1
  Na  Na3  1  0.540728  0.959272  0.959272  1
  Na  Na4  1  0.709272  0.290728  0.290728  1
  Na  Na5  1  0.291158  0.708842  0.291158  1
  Na  Na6  1  0.541158  0.958842  0.541158  1
  Na  Na7  1  0.959272  0.540728  0.540728  1
  V  V8  1  0.125000  0.125000  0.625000  1
  V  V9  1  0.125000  0.125000  0.125000  1
  V  V10  1  0.125000  0.625000  0.125000  1
  V  V11  1  0.625000  0.125000  0.125000  1
  C  C12  1  0.332674  0.335673  0.984945  1
  C  C13  1  0.914327  0.917326  0.903291  1
  C  C14  1  0.346709  0.984945  0.335673  1
  C  C15  1  0.984945  0.346709  0.332674  1
  C  C16  1  0.265055  0.903291  0.917326  1
  C  C17  1  0.903291  0.265055  0.914327  1
  C  C18  1  0.335673  0.332674  0.346709  1
  C  C19  1  0.917326  0.914327  0.265055  1
  S  S20  1  0.750000  0.750000  0.750000  1
  S  S21  1  0.500000  0.500000  0.500000  1
  O  O22  1  0.300813  0.480981  0.981106  1
  O  O23  1  0.934761  0.681998  0.691205  1
  O  O24  1  0.218469  0.307545  0.988673  1
  O  O25  1  0.942455  0.031531  0.764686  1
  O  O26  1  0.485314  0.988673  0.307545  1
  O  O27  1  0.026834  0.771114  0.930248  1
  O  O28  1  0.692036  0.691205  0.681998  1
  O  O29  1  0.681998  0.934761  0.692036  1
  O  O30  1  0.930248  0.271804  0.026834  1
  O  O31  1  0.988673  0.485314  0.218469  1
  O  O32  1  0.769019  0.949187  0.012900  1
  O  O33  1  0.691205  0.692036  0.934761  1
  O  O34  1  0.237100  0.981106  0.480981  1
  O  O35  1  0.981106  0.237100  0.300813  1
  O  O36  1  0.478886  0.223166  0.978196  1
  O  O37  1  0.271804  0.930248  0.771114  1
  O  O38  1  0.978196  0.319752  0.478886  1
  O  O39  1  0.771114  0.026834  0.271804  1
  O  O40  1  0.268894  0.012900  0.949187  1
  O  O41  1  0.012900  0.268894  0.769019  1
  O  O42  1  0.558795  0.557964  0.315239  1
  O  O43  1  0.480981  0.300813  0.237100  1
  O  O44  1  0.261327  0.764686  0.031531  1
  O  O45  1  0.319752  0.978196  0.223166  1
  O  O46  1  0.568002  0.315239  0.557964  1
  O  O47  1  0.557964  0.558795  0.568002  1
  O  O48  1  0.223166  0.478886  0.319752  1
  O  O49  1  0.764686  0.261327  0.942455  1
  O  O50  1  0.307545  0.218469  0.485314  1
  O  O51  1  0.031531  0.942455  0.261327  1
  O  O52  1  0.315239  0.568002  0.558795  1
  O  O53  1  0.949187  0.769019  0.268894  1
