# generated using pymatgen
data_Mn6O7F5
_symmetry_space_group_name_H-M   'P 1'
_cell_length_a   4.56044338
_cell_length_b   5.67847734
_cell_length_c   15.36794734
_cell_angle_alpha   90.04338715
_cell_angle_beta   90.14857395
_cell_angle_gamma   90.49170700
_symmetry_Int_Tables_number   1
_chemical_formula_structural   Mn6O7F5
_chemical_formula_sum   'Mn12 O14 F10'
_cell_volume   397.95800368
_cell_formula_units_Z   2
loop_
 _symmetry_equiv_pos_site_id
 _symmetry_equiv_pos_as_xyz
  1  'x, y, z'
loop_
 _atom_site_type_symbol
 _atom_site_label
 _atom_site_symmetry_multiplicity
 _atom_site_fract_x
 _atom_site_fract_y
 _atom_site_fract_z
 _atom_site_occupancy
  Mn  Mn0  1  0.976425  0.838842  0.409561  1
  Mn  Mn1  1  0.990081  0.153276  0.243647  1
  Mn  Mn2  1  0.971842  0.841697  0.078770  1
  Mn  Mn3  1  0.994478  0.847845  0.739988  1
  Mn  Mn4  1  0.983922  0.152411  0.572577  1
  Mn  Mn5  1  0.991444  0.153202  0.910331  1
  Mn  Mn6  1  0.498730  0.649815  0.586866  1
  Mn  Mn7  1  0.486224  0.652430  0.925621  1
  Mn  Mn8  1  0.498729  0.650788  0.254172  1
  Mn  Mn9  1  0.495751  0.363302  0.094496  1
  Mn  Mn10  1  0.494965  0.367016  0.425976  1
  Mn  Mn11  1  0.490678  0.349812  0.757816  1
  O  O12  1  0.780829  0.886213  0.300971  1
  O  O13  1  0.777560  0.887493  0.632650  1
  O  O14  1  0.777494  0.883809  0.969639  1
  O  O15  1  0.763289  0.114065  0.136812  1
  O  O16  1  0.760683  0.114197  0.467132  1
  O  O17  1  0.779642  0.115465  0.801181  1
  O  O18  1  0.719508  0.602861  0.147291  1
  O  O19  1  0.720425  0.602671  0.479369  1
  O  O20  1  0.267411  0.611379  0.032131  1
  O  O21  1  0.275202  0.380030  0.197559  1
  O  O22  1  0.272307  0.613804  0.361588  1
  O  O23  1  0.272246  0.382637  0.527985  1
  O  O24  1  0.278178  0.383914  0.866183  1
  O  O25  1  0.281638  0.617318  0.696465  1
  F  F26  1  0.740889  0.381968  0.320020  1
  F  F27  1  0.744915  0.383038  0.652830  1
  F  F28  1  0.744873  0.618887  0.821091  1
  F  F29  1  0.738286  0.380488  0.987671  1
  F  F30  1  0.226781  0.878882  0.182903  1
  F  F31  1  0.225982  0.876300  0.513666  1
  F  F32  1  0.246042  0.130442  0.356014  1
  F  F33  1  0.244824  0.127290  0.023927  1
  F  F34  1  0.243670  0.885332  0.847618  1
  F  F35  1  0.244052  0.121077  0.677481  1
