# generated using pymatgen
data_CaSi2
_symmetry_space_group_name_H-M   'P 1'
_cell_length_a   7.47190003
_cell_length_b   7.47190003
_cell_length_c   7.47190003
_cell_angle_alpha   147.01054139
_cell_angle_beta   147.01054139
_cell_angle_gamma   47.34817421
_symmetry_Int_Tables_number   1
_chemical_formula_structural   CaSi2
_chemical_formula_sum   'Ca2 Si4'
_cell_volume   123.19373058
_cell_formula_units_Z   2
loop_
 _symmetry_equiv_pos_site_id
 _symmetry_equiv_pos_as_xyz
  1  'x, y, z'
loop_
 _atom_site_type_symbol
 _atom_site_label
 _atom_site_symmetry_multiplicity
 _atom_site_fract_x
 _atom_site_fract_y
 _atom_site_fract_z
 _atom_site_occupancy
  Ca  Ca0  1  0.750000  0.250000  0.500000  1
  Ca  Ca1  1  0.000000  0.000000  0.000000  1
  Si  Si2  1  0.166172  0.666172  0.500000  1
  Si  Si3  1  0.416172  0.416172  0.000000  1
  Si  Si4  1  0.583828  0.583828  0.000000  1
  Si  Si5  1  0.333828  0.833828  0.500000  1
