# generated using pymatgen
data_U2Ni12As7
_symmetry_space_group_name_H-M   'P 1'
_cell_length_a   9.37988403
_cell_length_b   9.37988403
_cell_length_c   3.80553501
_cell_angle_alpha   90.00000000
_cell_angle_beta   90.00000000
_cell_angle_gamma   120.00000000
_symmetry_Int_Tables_number   1
_chemical_formula_structural   U2Ni12As7
_chemical_formula_sum   'U2 Ni12 As7'
_cell_volume   289.96213666
_cell_formula_units_Z   1
loop_
 _symmetry_equiv_pos_site_id
 _symmetry_equiv_pos_as_xyz
  1  'x, y, z'
loop_
 _atom_site_type_symbol
 _atom_site_label
 _atom_site_symmetry_multiplicity
 _atom_site_fract_x
 _atom_site_fract_y
 _atom_site_fract_z
 _atom_site_occupancy
  U  U0  1  0.666667  0.333333  0.500000  1
  U  U1  1  0.000000  0.000000  0.000000  1
  Ni  Ni2  1  0.949427  0.240959  0.500000  1
  Ni  Ni3  1  0.291532  0.050573  0.500000  1
  Ni  Ni4  1  0.759041  0.708468  0.500000  1
  Ni  Ni5  1  0.385952  0.277752  0.000000  1
  Ni  Ni6  1  0.891800  0.614048  0.000000  1
  Ni  Ni7  1  0.722248  0.108200  0.000000  1
  Ni  Ni8  1  0.430445  0.550652  0.500000  1
  Ni  Ni9  1  0.120206  0.569555  0.500000  1
  Ni  Ni10  1  0.449348  0.879794  0.500000  1
  Ni  Ni11  1  0.180294  0.385330  0.000000  1
  Ni  Ni12  1  0.205036  0.819706  0.000000  1
  Ni  Ni13  1  0.614670  0.794964  0.000000  1
  As  As14  1  0.333333  0.666667  0.000000  1
  As  As15  1  0.930220  0.386296  0.000000  1
  As  As16  1  0.456076  0.069780  0.000000  1
  As  As17  1  0.613704  0.543924  0.000000  1
  As  As18  1  0.219444  0.258354  0.500000  1
  As  As19  1  0.038909  0.780556  0.500000  1
  As  As20  1  0.741646  0.961091  0.500000  1
