# generated using pymatgen
data_Li2TiCr3O8
_symmetry_space_group_name_H-M   'P 1'
_cell_length_a   8.39767265
_cell_length_b   8.39767265
_cell_length_c   8.39767265
_cell_angle_alpha   90.00000000
_cell_angle_beta   90.00000000
_cell_angle_gamma   90.00000000
_symmetry_Int_Tables_number   1
_chemical_formula_structural   Li2TiCr3O8
_chemical_formula_sum   'Li8 Ti4 Cr12 O32'
_cell_volume   592.21148366
_cell_formula_units_Z   4
loop_
 _symmetry_equiv_pos_site_id
 _symmetry_equiv_pos_as_xyz
  1  'x, y, z'
loop_
 _atom_site_type_symbol
 _atom_site_label
 _atom_site_symmetry_multiplicity
 _atom_site_fract_x
 _atom_site_fract_y
 _atom_site_fract_z
 _atom_site_occupancy
  Li  Li0  1  0.996036  0.996036  0.996036  1
  Li  Li1  1  0.253964  0.253964  0.253964  1
  Li  Li2  1  0.246036  0.746036  0.753964  1
  Li  Li3  1  0.503964  0.003964  0.496036  1
  Li  Li4  1  0.496036  0.503964  0.003964  1
  Li  Li5  1  0.753964  0.246036  0.746036  1
  Li  Li6  1  0.746036  0.753964  0.246036  1
  Li  Li7  1  0.003964  0.496036  0.503964  1
  Ti  Ti8  1  0.125000  0.875000  0.375000  1
  Ti  Ti9  1  0.375000  0.125000  0.875000  1
  Ti  Ti10  1  0.625000  0.625000  0.625000  1
  Ti  Ti11  1  0.875000  0.375000  0.125000  1
  Cr  Cr12  1  0.128024  0.121976  0.625000  1
  Cr  Cr13  1  0.125000  0.371976  0.878024  1
  Cr  Cr14  1  0.121976  0.625000  0.128024  1
  Cr  Cr15  1  0.378024  0.375000  0.628024  1
  Cr  Cr16  1  0.375000  0.628024  0.378024  1
  Cr  Cr17  1  0.371976  0.878024  0.125000  1
  Cr  Cr18  1  0.628024  0.378024  0.375000  1
  Cr  Cr19  1  0.625000  0.128024  0.121976  1
  Cr  Cr20  1  0.621976  0.875000  0.871976  1
  Cr  Cr21  1  0.878024  0.125000  0.371976  1
  Cr  Cr22  1  0.875000  0.871976  0.621976  1
  Cr  Cr23  1  0.871976  0.621976  0.875000  1
  O  O24  1  0.117854  0.108020  0.386915  1
  O  O25  1  0.113085  0.882146  0.608020  1
  O  O26  1  0.108046  0.608046  0.891954  1
  O  O27  1  0.141980  0.132146  0.863085  1
  O  O28  1  0.108020  0.386915  0.117854  1
  O  O29  1  0.141954  0.358046  0.641954  1
  O  O30  1  0.136915  0.641980  0.367854  1
  O  O31  1  0.132146  0.863085  0.141980  1
  O  O32  1  0.367854  0.136915  0.641980  1
  O  O33  1  0.363085  0.358020  0.867854  1
  O  O34  1  0.358046  0.641954  0.141954  1
  O  O35  1  0.391980  0.613085  0.617854  1
  O  O36  1  0.358020  0.867854  0.363085  1
  O  O37  1  0.391954  0.391954  0.391954  1
  O  O38  1  0.386915  0.117854  0.108020  1
  O  O39  1  0.382146  0.891980  0.886915  1
  O  O40  1  0.617854  0.391980  0.613085  1
  O  O41  1  0.613085  0.617854  0.391980  1
  O  O42  1  0.608046  0.891954  0.108046  1
  O  O43  1  0.641980  0.367854  0.136915  1
  O  O44  1  0.608020  0.113085  0.882146  1
  O  O45  1  0.641954  0.141954  0.358046  1
  O  O46  1  0.636915  0.858020  0.632146  1
  O  O47  1  0.632146  0.636915  0.858020  1
  O  O48  1  0.867854  0.363085  0.358020  1
  O  O49  1  0.863085  0.141980  0.132146  1
  O  O50  1  0.858046  0.858046  0.858046  1
  O  O51  1  0.891980  0.886915  0.382146  1
  O  O52  1  0.858020  0.632146  0.636915  1
  O  O53  1  0.891954  0.108046  0.608046  1
  O  O54  1  0.886915  0.382146  0.891980  1
  O  O55  1  0.882146  0.608020  0.113085  1
