# generated using pymatgen
data_Mn2OF3
_symmetry_space_group_name_H-M   'P 1'
_cell_length_a   4.88049339
_cell_length_b   4.88049339
_cell_length_c   15.85286406
_cell_angle_alpha   90.00000000
_cell_angle_beta   90.00000000
_cell_angle_gamma   92.49063739
_symmetry_Int_Tables_number   1
_chemical_formula_structural   Mn2OF3
_chemical_formula_sum   'Mn10 O5 F15'
_cell_volume   377.24608165
_cell_formula_units_Z   5
loop_
 _symmetry_equiv_pos_site_id
 _symmetry_equiv_pos_as_xyz
  1  'x, y, z'
loop_
 _atom_site_type_symbol
 _atom_site_label
 _atom_site_symmetry_multiplicity
 _atom_site_fract_x
 _atom_site_fract_y
 _atom_site_fract_z
 _atom_site_occupancy
  Mn  Mn0  1  0.962007  0.962007  0.199485  1
  Mn  Mn1  1  0.036054  0.036054  0.000000  1
  Mn  Mn2  1  0.962007  0.962007  0.800515  1
  Mn  Mn3  1  0.026881  0.026881  0.399833  1
  Mn  Mn4  1  0.026881  0.026881  0.600167  1
  Mn  Mn5  1  0.493135  0.493135  0.300296  1
  Mn  Mn6  1  0.500173  0.500173  0.900015  1
  Mn  Mn7  1  0.500173  0.500173  0.099985  1
  Mn  Mn8  1  0.493135  0.493135  0.699704  1
  Mn  Mn9  1  0.497745  0.497745  0.500000  1
  O  O10  1  0.334607  0.334607  0.000000  1
  O  O11  1  0.323410  0.323410  0.400077  1
  O  O12  1  0.323410  0.323410  0.599923  1
  O  O13  1  0.663568  0.663568  0.799618  1
  O  O14  1  0.663568  0.663568  0.200382  1
  F  F15  1  0.791572  0.196163  0.699593  1
  F  F16  1  0.796075  0.203422  0.900176  1
  F  F17  1  0.796075  0.203422  0.099824  1
  F  F18  1  0.791572  0.196163  0.300407  1
  F  F19  1  0.818713  0.208646  0.500000  1
  F  F20  1  0.278027  0.278027  0.800746  1
  F  F21  1  0.278027  0.278027  0.199254  1
  F  F22  1  0.719391  0.719391  0.000000  1
  F  F23  1  0.707988  0.707988  0.404464  1
  F  F24  1  0.707988  0.707988  0.595536  1
  F  F25  1  0.203422  0.796075  0.900176  1
  F  F26  1  0.203422  0.796075  0.099824  1
  F  F27  1  0.196163  0.791572  0.300407  1
  F  F28  1  0.196163  0.791572  0.699593  1
  F  F29  1  0.208646  0.818713  0.500000  1
