# generated using pymatgen
data_Ba8Bi4H2O
_symmetry_space_group_name_H-M   'P 1'
_cell_length_a   19.71341525
_cell_length_b   19.71341525
_cell_length_c   19.71341525
_cell_angle_alpha   164.51274282
_cell_angle_beta   164.51274282
_cell_angle_gamma   21.97002181
_symmetry_Int_Tables_number   1
_chemical_formula_structural   Ba8Bi4H2O
_chemical_formula_sum   'Ba8 Bi4 H2 O1'
_cell_volume   546.15023369
_cell_formula_units_Z   1
loop_
 _symmetry_equiv_pos_site_id
 _symmetry_equiv_pos_as_xyz
  1  'x, y, z'
loop_
 _atom_site_type_symbol
 _atom_site_label
 _atom_site_symmetry_multiplicity
 _atom_site_fract_x
 _atom_site_fract_y
 _atom_site_fract_z
 _atom_site_occupancy
  Ba  Ba0  1  1.000000  0.500000  0.500000  1
  Ba  Ba1  1  0.500000  0.000000  0.500000  1
  Ba  Ba2  1  0.084247  0.084247  0.000000  1
  Ba  Ba3  1  0.660095  0.660095  0.000000  1
  Ba  Ba4  1  0.250000  0.750000  0.500000  1
  Ba  Ba5  1  0.750000  0.250000  0.500000  1
  Ba  Ba6  1  0.339905  0.339905  0.000000  1
  Ba  Ba7  1  0.915753  0.915753  0.000000  1
  Bi  Bi8  1  0.567493  0.567493  0.000000  1
  Bi  Bi9  1  0.179616  0.179616  0.000000  1
  Bi  Bi10  1  0.820384  0.820384  0.000000  1
  Bi  Bi11  1  0.432507  0.432507  0.000000  1
  H  H12  1  0.729119  0.729119  0.000000  1
  H  H13  1  0.270881  0.270881  0.000000  1
  O  O14  1  0.000000  0.000000  0.000000  1
