# generated using pymatgen
data_Ba2CuO3
_symmetry_space_group_name_H-M   'P 1'
_cell_length_a   7.17678171
_cell_length_b   7.17678171
_cell_length_c   7.17678171
_cell_angle_alpha   148.84786739
_cell_angle_beta   146.19170176
_cell_angle_gamma   46.63050031
_symmetry_Int_Tables_number   1
_chemical_formula_structural   Ba2CuO3
_chemical_formula_sum   'Ba2 Cu1 O3'
_cell_volume   106.01749868
_cell_formula_units_Z   1
loop_
 _symmetry_equiv_pos_site_id
 _symmetry_equiv_pos_as_xyz
  1  'x, y, z'
loop_
 _atom_site_type_symbol
 _atom_site_label
 _atom_site_symmetry_multiplicity
 _atom_site_fract_x
 _atom_site_fract_y
 _atom_site_fract_z
 _atom_site_occupancy
  Ba  Ba0  1  0.145238  0.645238  0.500000  1
  Ba  Ba1  1  0.854762  0.354762  0.500000  1
  Cu  Cu2  1  0.500000  1.000000  0.500000  1
  O  O3  1  0.000000  0.000000  0.000000  1
  O  O4  1  0.352672  0.852672  0.500000  1
  O  O5  1  0.647328  0.147328  0.500000  1
