# generated using pymatgen
data_Li9V5(Si5O16)2
_symmetry_space_group_name_H-M   'P 1'
_cell_length_a   8.05978329
_cell_length_b   8.05978329
_cell_length_c   8.11086230
_cell_angle_alpha   88.74520307
_cell_angle_beta   91.25479693
_cell_angle_gamma   90.95234334
_symmetry_Int_Tables_number   1
_chemical_formula_structural   Li9V5(Si5O16)2
_chemical_formula_sum   'Li9 V5 Si10 O32'
_cell_volume   526.56114102
_cell_formula_units_Z   1
loop_
 _symmetry_equiv_pos_site_id
 _symmetry_equiv_pos_as_xyz
  1  'x, y, z'
loop_
 _atom_site_type_symbol
 _atom_site_label
 _atom_site_symmetry_multiplicity
 _atom_site_fract_x
 _atom_site_fract_y
 _atom_site_fract_z
 _atom_site_occupancy
  Li  Li0  1  0.493292  0.253595  0.366390  1
  Li  Li1  1  0.253595  0.493292  0.633610  1
  Li  Li2  1  0.753912  0.996115  0.623341  1
  Li  Li3  1  0.498145  0.744761  0.882800  1
  Li  Li4  1  0.006638  0.258080  0.877720  1
  Li  Li5  1  0.375490  0.375490  0.000000  1
  Li  Li6  1  0.258080  0.006638  0.122280  1
  Li  Li7  1  0.744761  0.498145  0.117200  1
  Li  Li8  1  0.996115  0.753912  0.376659  1
  V  V9  1  0.865860  0.371947  0.489818  1
  V  V10  1  0.128101  0.128101  0.500000  1
  V  V11  1  0.371947  0.865860  0.510182  1
  V  V12  1  0.870436  0.623549  0.752318  1
  V  V13  1  0.623549  0.870436  0.247682  1
  Si  Si14  1  0.611521  0.611521  0.500000  1
  Si  Si15  1  0.615437  0.368981  0.750800  1
  Si  Si16  1  0.380271  0.122582  0.763185  1
  Si  Si17  1  0.132825  0.880961  0.767057  1
  Si  Si18  1  0.630369  0.131662  0.991175  1
  Si  Si19  1  0.883939  0.883939  0.000000  1
  Si  Si20  1  0.131662  0.630369  0.008825  1
  Si  Si21  1  0.880961  0.132825  0.232943  1
  Si  Si22  1  0.122582  0.380271  0.236815  1
  Si  Si23  1  0.368981  0.615437  0.249200  1
  O  O24  1  0.878738  0.125571  0.453553  1
  O  O25  1  0.387570  0.619285  0.478820  1
  O  O26  1  0.619402  0.835475  0.494234  1
  O  O27  1  0.373616  0.110128  0.536191  1
  O  O28  1  0.110128  0.373616  0.463809  1
  O  O29  1  0.835475  0.619402  0.505766  1
  O  O30  1  0.619285  0.387570  0.521180  1
  O  O31  1  0.125571  0.878738  0.546447  1
  O  O32  1  0.842455  0.379996  0.740702  1
  O  O33  1  0.355503  0.894483  0.761850  1
  O  O34  1  0.154726  0.107109  0.760404  1
  O  O35  1  0.906343  0.881402  0.777854  1
  O  O36  1  0.612578  0.593983  0.727002  1
  O  O37  1  0.397323  0.339311  0.750900  1
  O  O38  1  0.615023  0.134512  0.762735  1
  O  O39  1  0.129086  0.654015  0.787916  1
  O  O40  1  0.633728  0.348759  0.966884  1
  O  O41  1  0.112303  0.867647  0.992823  1
  O  O42  1  0.896243  0.661173  0.003145  1
  O  O43  1  0.114005  0.414878  0.020144  1
  O  O44  1  0.414878  0.114005  0.979856  1
  O  O45  1  0.661173  0.896243  0.996855  1
  O  O46  1  0.867647  0.112303  0.007177  1
  O  O47  1  0.348759  0.633728  0.033116  1
  O  O48  1  0.654015  0.129086  0.212084  1
  O  O49  1  0.134512  0.615023  0.237265  1
  O  O50  1  0.339311  0.397323  0.249100  1
  O  O51  1  0.593983  0.612578  0.272998  1
  O  O52  1  0.881402  0.906343  0.222146  1
  O  O53  1  0.107109  0.154726  0.239596  1
  O  O54  1  0.894483  0.355503  0.238150  1
  O  O55  1  0.379996  0.842455  0.259298  1
