# generated using pymatgen
data_Er(BRh)4
_symmetry_space_group_name_H-M   'P 1'
_cell_length_a   5.33630442
_cell_length_b   5.33630442
_cell_length_c   7.44528017
_cell_angle_alpha   90.00000000
_cell_angle_beta   90.00000000
_cell_angle_gamma   90.00000000
_symmetry_Int_Tables_number   1
_chemical_formula_structural   Er(BRh)4
_chemical_formula_sum   'Er2 B8 Rh8'
_cell_volume   212.01287667
_cell_formula_units_Z   2
loop_
 _symmetry_equiv_pos_site_id
 _symmetry_equiv_pos_as_xyz
  1  'x, y, z'
loop_
 _atom_site_type_symbol
 _atom_site_label
 _atom_site_symmetry_multiplicity
 _atom_site_fract_x
 _atom_site_fract_y
 _atom_site_fract_z
 _atom_site_occupancy
  Er  Er0  1  0.500000  0.500000  0.500000  1
  Er  Er1  1  0.000000  0.000000  0.000000  1
  B  B2  1  0.168591  0.500000  0.148840  1
  B  B3  1  0.831409  0.500000  0.148840  1
  B  B4  1  0.000000  0.668591  0.648840  1
  B  B5  1  0.331409  0.000000  0.351160  1
  B  B6  1  0.668591  0.000000  0.351160  1
  B  B7  1  0.500000  0.831409  0.851160  1
  B  B8  1  0.500000  0.168591  0.851160  1
  B  B9  1  0.000000  0.331409  0.648840  1
  Rh  Rh10  1  0.748583  0.500000  0.854391  1
  Rh  Rh11  1  0.251417  0.500000  0.854391  1
  Rh  Rh12  1  0.000000  0.751417  0.354391  1
  Rh  Rh13  1  0.248583  0.000000  0.645609  1
  Rh  Rh14  1  0.751417  0.000000  0.645609  1
  Rh  Rh15  1  0.500000  0.748583  0.145609  1
  Rh  Rh16  1  0.500000  0.251417  0.145609  1
  Rh  Rh17  1  0.000000  0.248583  0.354391  1
