# generated using pymatgen
data_Pr2Ni12As7
_symmetry_space_group_name_H-M   'P 1'
_cell_length_a   9.40193296
_cell_length_b   9.40193296
_cell_length_c   3.89574310
_cell_angle_alpha   90.00000000
_cell_angle_beta   90.00000000
_cell_angle_gamma   120.00000000
_symmetry_Int_Tables_number   1
_chemical_formula_structural   Pr2Ni12As7
_chemical_formula_sum   'Pr2 Ni12 As7'
_cell_volume   298.23268724
_cell_formula_units_Z   1
loop_
 _symmetry_equiv_pos_site_id
 _symmetry_equiv_pos_as_xyz
  1  'x, y, z'
loop_
 _atom_site_type_symbol
 _atom_site_label
 _atom_site_symmetry_multiplicity
 _atom_site_fract_x
 _atom_site_fract_y
 _atom_site_fract_z
 _atom_site_occupancy
  Pr  Pr0  1  0.666667  0.333333  0.000000  1
  Pr  Pr1  1  0.000000  0.000000  0.500000  1
  Ni  Ni2  1  0.707197  0.088346  0.500000  1
  Ni  Ni3  1  0.911654  0.618851  0.500000  1
  Ni  Ni4  1  0.381149  0.292803  0.500000  1
  Ni  Ni5  1  0.773938  0.721621  0.000000  1
  Ni  Ni6  1  0.278379  0.052317  0.000000  1
  Ni  Ni7  1  0.947683  0.226062  0.000000  1
  Ni  Ni8  1  0.539974  0.763339  0.500000  1
  Ni  Ni9  1  0.236661  0.776635  0.500000  1
  Ni  Ni10  1  0.223365  0.460026  0.500000  1
  Ni  Ni11  1  0.479176  0.944755  0.000000  1
  Ni  Ni12  1  0.055245  0.534421  0.000000  1
  Ni  Ni13  1  0.465579  0.520824  0.000000  1
  As  As14  1  0.333333  0.666667  0.000000  1
  As  As15  1  0.434734  0.068431  0.500000  1
  As  As16  1  0.931569  0.366304  0.500000  1
  As  As17  1  0.633696  0.565266  0.500000  1
  As  As18  1  0.729565  0.949975  0.000000  1
  As  As19  1  0.050025  0.779591  0.000000  1
  As  As20  1  0.220409  0.270435  0.000000  1
