# generated using pymatgen
data_Sr17(Li2Hg3)3
_symmetry_space_group_name_H-M   'P 1'
_cell_length_a   14.43448626
_cell_length_b   14.43448626
_cell_length_c   14.43448626
_cell_angle_alpha   109.47122063
_cell_angle_beta   109.47122063
_cell_angle_gamma   109.47122063
_symmetry_Int_Tables_number   1
_chemical_formula_structural   Sr17(Li2Hg3)3
_chemical_formula_sum   'Sr34 Li12 Hg18'
_cell_volume   2315.16582978
_cell_formula_units_Z   2
loop_
 _symmetry_equiv_pos_site_id
 _symmetry_equiv_pos_as_xyz
  1  'x, y, z'
loop_
 _atom_site_type_symbol
 _atom_site_label
 _atom_site_symmetry_multiplicity
 _atom_site_fract_x
 _atom_site_fract_y
 _atom_site_fract_z
 _atom_site_occupancy
  Sr  Sr0  1  0.000000  0.000000  0.000000  1
  Sr  Sr1  1  0.448861  0.187788  1.000000  1
  Sr  Sr2  1  0.187788  0.448861  1.000000  1
  Sr  Sr3  1  0.500000  0.500000  0.000000  1
  Sr  Sr4  1  0.812212  0.551139  1.000000  1
  Sr  Sr5  1  0.551139  0.812212  1.000000  1
  Sr  Sr6  1  0.448861  1.000000  0.187788  1
  Sr  Sr7  1  0.738927  0.187788  0.187788  1
  Sr  Sr8  1  1.000000  0.448861  0.187788  1
  Sr  Sr9  1  0.187788  0.738927  0.187788  1
  Sr  Sr10  1  0.750000  0.500000  0.250000  1
  Sr  Sr11  1  0.500000  0.750000  0.250000  1
  Sr  Sr12  1  0.448861  0.448861  0.261073  1
  Sr  Sr13  1  0.812212  0.812212  0.261073  1
  Sr  Sr14  1  0.187788  1.000000  0.448861  1
  Sr  Sr15  1  1.000000  0.187788  0.448861  1
  Sr  Sr16  1  0.448861  0.261073  0.448861  1
  Sr  Sr17  1  0.261073  0.448861  0.448861  1
  Sr  Sr18  1  0.500000  1.000000  0.500000  1
  Sr  Sr19  1  0.750000  0.250000  0.500000  1
  Sr  Sr20  1  0.000000  0.500000  0.500000  1
  Sr  Sr21  1  0.250000  0.750000  0.500000  1
  Sr  Sr22  1  0.812212  1.000000  0.551139  1
  Sr  Sr23  1  1.000000  0.812212  0.551139  1
  Sr  Sr24  1  0.738927  0.551139  0.551139  1
  Sr  Sr25  1  0.551139  0.738927  0.551139  1
  Sr  Sr26  1  0.187788  0.187788  0.738927  1
  Sr  Sr27  1  0.551139  0.551139  0.738927  1
  Sr  Sr28  1  0.500000  0.250000  0.750000  1
  Sr  Sr29  1  0.250000  0.500000  0.750000  1
  Sr  Sr30  1  0.551139  1.000000  0.812212  1
  Sr  Sr31  1  0.812212  0.261073  0.812212  1
  Sr  Sr32  1  1.000000  0.551139  0.812212  1
  Sr  Sr33  1  0.261073  0.812212  0.812212  1
  Li  Li34  1  0.852038  0.147962  0.000000  1
  Li  Li35  1  0.147962  0.852038  0.000000  1
  Li  Li36  1  0.852038  0.000000  0.147962  1
  Li  Li37  1  0.000000  0.852038  0.147962  1
  Li  Li38  1  0.295925  0.147962  0.147962  1
  Li  Li39  1  0.147962  0.295925  0.147962  1
  Li  Li40  1  0.147962  0.147962  0.295925  1
  Li  Li41  1  0.852038  0.852038  0.704075  1
  Li  Li42  1  0.147962  1.000000  0.852038  1
  Li  Li43  1  1.000000  0.147962  0.852038  1
  Li  Li44  1  0.852038  0.704075  0.852038  1
  Li  Li45  1  0.704075  0.852038  0.852038  1
  Hg  Hg46  1  0.231166  0.231166  0.000000  1
  Hg  Hg47  1  0.704678  0.295322  0.000000  1
  Hg  Hg48  1  0.295322  0.704678  1.000000  1
  Hg  Hg49  1  0.768834  0.768834  0.000000  1
  Hg  Hg50  1  0.231166  1.000000  0.231166  1
  Hg  Hg51  1  0.000000  0.231166  0.231166  1
  Hg  Hg52  1  0.704678  0.000000  0.295322  1
  Hg  Hg53  1  0.590643  0.295322  0.295322  1
  Hg  Hg54  1  0.295322  0.590643  0.295322  1
  Hg  Hg55  1  1.000000  0.704678  0.295322  1
  Hg  Hg56  1  0.704678  0.704678  0.409357  1
  Hg  Hg57  1  0.295322  0.295322  0.590643  1
  Hg  Hg58  1  0.295322  1.000000  0.704678  1
  Hg  Hg59  1  0.000000  0.295322  0.704678  1
  Hg  Hg60  1  0.704678  0.409357  0.704678  1
  Hg  Hg61  1  0.409357  0.704678  0.704678  1
  Hg  Hg62  1  0.768834  1.000000  0.768834  1
  Hg  Hg63  1  0.000000  0.768834  0.768834  1
