# generated using pymatgen
data_Li2V2F7
_symmetry_space_group_name_H-M   'P 1'
_cell_length_a   5.30170888
_cell_length_b   7.70017779
_cell_length_c   12.45963172
_cell_angle_alpha   90.00000000
_cell_angle_beta   90.00000000
_cell_angle_gamma   90.00000000
_symmetry_Int_Tables_number   1
_chemical_formula_structural   Li2V2F7
_chemical_formula_sum   'Li8 V8 F28'
_cell_volume   508.65326335
_cell_formula_units_Z   4
loop_
 _symmetry_equiv_pos_site_id
 _symmetry_equiv_pos_as_xyz
  1  'x, y, z'
loop_
 _atom_site_type_symbol
 _atom_site_label
 _atom_site_symmetry_multiplicity
 _atom_site_fract_x
 _atom_site_fract_y
 _atom_site_fract_z
 _atom_site_occupancy
  Li  Li0  1  0.883463  0.252072  0.072643  1
  Li  Li1  1  0.875891  0.753520  0.181078  1
  Li  Li2  1  0.375891  0.253520  0.318922  1
  Li  Li3  1  0.383463  0.752072  0.427357  1
  Li  Li4  1  0.616537  0.252072  0.572643  1
  Li  Li5  1  0.624109  0.753520  0.681078  1
  Li  Li6  1  0.124109  0.253520  0.818922  1
  Li  Li7  1  0.116537  0.752072  0.927357  1
  V  V8  1  0.352519  0.528207  0.121957  1
  V  V9  1  0.365350  0.992682  0.127680  1
  V  V10  1  0.865350  0.492682  0.372320  1
  V  V11  1  0.852519  0.028207  0.378043  1
  V  V12  1  0.147481  0.528207  0.621957  1
  V  V13  1  0.134650  0.992682  0.627680  1
  V  V14  1  0.634650  0.492682  0.872320  1
  V  V15  1  0.647481  0.028207  0.878043  1
  F  F16  1  0.686237  0.461192  0.054199  1
  F  F17  1  0.703698  0.031044  0.045079  1
  F  F18  1  0.114168  0.730925  0.076021  1
  F  F19  1  0.235640  0.266840  0.115691  1
  F  F20  1  0.532556  0.748320  0.157342  1
  F  F21  1  0.059793  0.550914  0.231619  1
  F  F22  1  0.035257  0.952287  0.240589  1
  F  F23  1  0.535257  0.452287  0.259411  1
  F  F24  1  0.559793  0.050914  0.268381  1
  F  F25  1  0.032556  0.248320  0.342658  1
  F  F26  1  0.735640  0.766840  0.384309  1
  F  F27  1  0.614168  0.230925  0.423979  1
  F  F28  1  0.203698  0.531044  0.454921  1
  F  F29  1  0.186237  0.961192  0.445801  1
  F  F30  1  0.813763  0.461192  0.554199  1
  F  F31  1  0.796302  0.031044  0.545079  1
  F  F32  1  0.385832  0.730925  0.576021  1
  F  F33  1  0.264360  0.266840  0.615691  1
  F  F34  1  0.967444  0.748320  0.657342  1
  F  F35  1  0.440207  0.550914  0.731619  1
  F  F36  1  0.464743  0.952287  0.740589  1
  F  F37  1  0.964743  0.452287  0.759411  1
  F  F38  1  0.940207  0.050914  0.768381  1
  F  F39  1  0.467444  0.248320  0.842658  1
  F  F40  1  0.764360  0.766840  0.884309  1
  F  F41  1  0.885832  0.230925  0.923979  1
  F  F42  1  0.296302  0.531044  0.954921  1
  F  F43  1  0.313763  0.961192  0.945801  1
