# generated using pymatgen
data_Li3MnF5
_symmetry_space_group_name_H-M   'P 1'
_cell_length_a   9.22704340
_cell_length_b   9.26984383
_cell_length_c   10.34103311
_cell_angle_alpha   72.93574494
_cell_angle_beta   72.76617739
_cell_angle_gamma   68.27798762
_symmetry_Int_Tables_number   1
_chemical_formula_structural   Li3MnF5
_chemical_formula_sum   'Li24 Mn8 F40'
_cell_volume   767.78146399
_cell_formula_units_Z   8
loop_
 _symmetry_equiv_pos_site_id
 _symmetry_equiv_pos_as_xyz
  1  'x, y, z'
loop_
 _atom_site_type_symbol
 _atom_site_label
 _atom_site_symmetry_multiplicity
 _atom_site_fract_x
 _atom_site_fract_y
 _atom_site_fract_z
 _atom_site_occupancy
  Li  Li0  1  0.398545  0.900286  0.285466  1
  Li  Li1  1  0.056516  0.564075  0.093273  1
  Li  Li2  1  0.188755  0.722908  0.852637  1
  Li  Li3  1  0.311828  0.794055  0.111301  1
  Li  Li4  1  0.431294  0.924977  0.880810  1
  Li  Li5  1  0.144822  0.642542  0.287586  1
  Li  Li6  1  0.392928  0.406508  0.791413  1
  Li  Li7  1  0.200009  0.207897  0.369304  1
  Li  Li8  1  0.712206  0.716220  0.356687  1
  Li  Li9  1  0.028321  0.043574  0.633806  1
  Li  Li10  1  0.552527  0.567191  0.598081  1
  Li  Li11  1  0.972798  0.951117  0.367302  1
  Li  Li12  1  0.462467  0.455386  0.360218  1
  Li  Li13  1  0.315129  0.302790  0.597259  1
  Li  Li14  1  0.821433  0.807677  0.615187  1
  Li  Li15  1  0.147006  0.150667  0.788095  1
  Li  Li16  1  0.649677  0.642618  0.787469  1
  Li  Li17  1  0.902218  0.408909  0.277971  1
  Li  Li18  1  0.554497  0.064307  0.098459  1
  Li  Li19  1  0.729750  0.226275  0.866162  1
  Li  Li20  1  0.815772  0.303225  0.098097  1
  Li  Li21  1  0.971434  0.469524  0.865329  1
  Li  Li22  1  0.602428  0.085156  0.744640  1
  Li  Li23  1  0.650019  0.143995  0.285731  1
  Mn  Mn24  1  0.237922  0.735663  0.516268  1
  Mn  Mn25  1  0.986100  0.486452  0.522600  1
  Mn  Mn26  1  0.745338  0.748609  0.003620  1
  Mn  Mn27  1  0.984127  0.981068  0.021609  1
  Mn  Mn28  1  0.237366  0.230731  0.021176  1
  Mn  Mn29  1  0.485668  0.483916  0.021525  1
  Mn  Mn30  1  0.485438  0.982176  0.520990  1
  Mn  Mn31  1  0.743942  0.249288  0.501548  1
  F  F32  1  0.102073  0.951713  0.807944  1
  F  F33  1  0.005625  0.872081  0.577428  1
  F  F34  1  0.279263  0.967426  0.484926  1
  F  F35  1  0.110659  0.747308  0.099277  1
  F  F36  1  0.201496  0.838304  0.302098  1
  F  F37  1  0.090962  0.445487  0.307503  1
  F  F38  1  0.593587  0.944833  0.307790  1
  F  F39  1  0.320135  0.630461  0.699233  1
  F  F40  1  0.500629  0.860092  0.093942  1
  F  F41  1  0.001580  0.359139  0.095720  1
  F  F42  1  0.413156  0.723687  0.916144  1
  F  F43  1  0.223274  0.521385  0.488692  1
  F  F44  1  0.280124  0.458261  0.988382  1
  F  F45  1  0.769795  0.973730  0.996631  1
  F  F46  1  0.109858  0.248726  0.600450  1
  F  F47  1  0.608781  0.748951  0.601238  1
  F  F48  1  0.484329  0.669797  0.413063  1
  F  F49  1  0.379150  0.567692  0.202779  1
  F  F50  1  0.667238  0.855226  0.805591  1
  F  F51  1  0.195595  0.337075  0.808019  1
  F  F52  1  0.822727  0.636472  0.192501  1
  F  F53  1  0.324789  0.131887  0.200771  1
  F  F54  1  0.593424  0.446421  0.807033  1
  F  F55  1  0.506228  0.348126  0.606975  1
  F  F56  1  0.426510  0.229178  0.416003  1
  F  F57  1  0.926966  0.729865  0.413018  1
  F  F58  1  0.219187  0.021083  0.991389  1
  F  F59  1  0.718278  0.532621  0.983060  1
  F  F60  1  0.775627  0.476912  0.482627  1
  F  F61  1  0.614499  0.250429  0.096582  1
  F  F62  1  0.991993  0.655545  0.913783  1
  F  F63  1  0.485880  0.172164  0.906042  1
  F  F64  1  0.693067  0.345644  0.299369  1
  F  F65  1  0.398102  0.070552  0.706832  1
  F  F66  1  0.884313  0.576668  0.702795  1
  F  F67  1  0.794267  0.146333  0.699380  1
  F  F68  1  0.920600  0.229536  0.913859  1
  F  F69  1  0.709589  0.030081  0.505611  1
  F  F70  1  0.983374  0.181717  0.402805  1
  F  F71  1  0.883202  0.067374  0.205463  1
