# generated using pymatgen
data_Li2VF5
_symmetry_space_group_name_H-M   'P 1'
_cell_length_a   13.75571418
_cell_length_b   5.30800069
_cell_length_c   14.52497523
_cell_angle_alpha   90.00000000
_cell_angle_beta   96.68643396
_cell_angle_gamma   90.00000000
_symmetry_Int_Tables_number   1
_chemical_formula_structural   Li2VF5
_chemical_formula_sum   'Li24 V12 F60'
_cell_volume   1053.33243692
_cell_formula_units_Z   12
loop_
 _symmetry_equiv_pos_site_id
 _symmetry_equiv_pos_as_xyz
  1  'x, y, z'
loop_
 _atom_site_type_symbol
 _atom_site_label
 _atom_site_symmetry_multiplicity
 _atom_site_fract_x
 _atom_site_fract_y
 _atom_site_fract_z
 _atom_site_occupancy
  Li  Li0  1  0.571159  0.305428  0.976379  1
  Li  Li1  1  0.071159  0.194572  0.976379  1
  Li  Li2  1  0.715436  0.700016  0.926541  1
  Li  Li3  1  0.215436  0.799984  0.926541  1
  Li  Li4  1  0.613069  0.205724  0.764844  1
  Li  Li5  1  0.113069  0.294276  0.764844  1
  Li  Li6  1  0.744931  0.787978  0.712323  1
  Li  Li7  1  0.244931  0.712022  0.712323  1
  Li  Li8  1  0.940254  0.264387  0.620374  1
  Li  Li9  1  0.440254  0.235613  0.620374  1
  Li  Li10  1  0.557173  0.701860  0.577203  1
  Li  Li11  1  0.057173  0.798140  0.577203  1
  Li  Li12  1  0.942827  0.201860  0.422797  1
  Li  Li13  1  0.442827  0.298140  0.422797  1
  Li  Li14  1  0.559746  0.764387  0.379626  1
  Li  Li15  1  0.059746  0.735613  0.379626  1
  Li  Li16  1  0.755069  0.287978  0.287677  1
  Li  Li17  1  0.255069  0.212022  0.287677  1
  Li  Li18  1  0.886931  0.705724  0.235156  1
  Li  Li19  1  0.386931  0.794276  0.235156  1
  Li  Li20  1  0.784564  0.200016  0.073459  1
  Li  Li21  1  0.284564  0.299984  0.073459  1
  Li  Li22  1  0.928841  0.805428  0.023621  1
  Li  Li23  1  0.428841  0.694572  0.023621  1
  V  V24  1  0.849387  0.284501  0.868554  1
  V  V25  1  0.349387  0.215499  0.868554  1
  V  V26  1  0.989042  0.746125  0.791533  1
  V  V27  1  0.489042  0.753875  0.791533  1
  V  V28  1  0.679561  0.245929  0.544605  1
  V  V29  1  0.179561  0.254071  0.544605  1
  V  V30  1  0.820439  0.745929  0.455395  1
  V  V31  1  0.320439  0.754071  0.455395  1
  V  V32  1  0.510958  0.246125  0.208467  1
  V  V33  1  0.010958  0.253875  0.208467  1
  V  V34  1  0.650613  0.784501  0.131446  1
  V  V35  1  0.150613  0.715499  0.131446  1
  F  F36  1  0.850647  0.533021  0.965199  1
  F  F37  1  0.827196  0.036696  0.964547  1
  F  F38  1  0.350647  0.966979  0.965199  1
  F  F39  1  0.327196  0.463304  0.964547  1
  F  F40  1  0.705400  0.336546  0.857159  1
  F  F41  1  0.205400  0.163454  0.857159  1
  F  F42  1  0.504463  0.609072  0.915312  1
  F  F43  1  0.004463  0.890928  0.915312  1
  F  F44  1  0.499878  0.113726  0.867390  1
  F  F45  1  0.999878  0.386274  0.867390  1
  F  F46  1  0.855035  0.997055  0.785607  1
  F  F47  1  0.355035  0.502945  0.785607  1
  F  F48  1  0.853980  0.540298  0.771836  1
  F  F49  1  0.353980  0.959702  0.771836  1
  F  F50  1  0.634714  0.814402  0.809737  1
  F  F51  1  0.134714  0.685598  0.809737  1
  F  F52  1  0.516780  0.453960  0.719214  1
  F  F53  1  0.495723  0.918892  0.670257  1
  F  F54  1  0.016780  0.046040  0.719214  1
  F  F55  1  0.995723  0.581108  0.670257  1
  F  F56  1  0.681571  0.090196  0.665586  1
  F  F57  1  0.694836  0.559368  0.618448  1
  F  F58  1  0.181571  0.409804  0.665586  1
  F  F59  1  0.194836  0.940632  0.618448  1
  F  F60  1  0.537959  0.312497  0.540172  1
  F  F61  1  0.820194  0.976101  0.562984  1
  F  F62  1  0.037959  0.187503  0.540172  1
  F  F63  1  0.320194  0.523899  0.562984  1
  F  F64  1  0.857954  0.437467  0.519794  1
  F  F65  1  0.357954  0.062533  0.519794  1
  F  F66  1  0.642046  0.937467  0.480206  1
  F  F67  1  0.142046  0.562533  0.480206  1
  F  F68  1  0.679806  0.476101  0.437016  1
  F  F69  1  0.962041  0.812497  0.459828  1
  F  F70  1  0.179806  0.023899  0.437016  1
  F  F71  1  0.462041  0.687503  0.459828  1
  F  F72  1  0.805164  0.059368  0.381552  1
  F  F73  1  0.818429  0.590196  0.334414  1
  F  F74  1  0.305164  0.440632  0.381552  1
  F  F75  1  0.318429  0.909804  0.334414  1
  F  F76  1  0.004277  0.418892  0.329743  1
  F  F77  1  0.983220  0.953960  0.280786  1
  F  F78  1  0.504277  0.081108  0.329743  1
  F  F79  1  0.483220  0.546040  0.280786  1
  F  F80  1  0.865286  0.314402  0.190263  1
  F  F81  1  0.365286  0.185598  0.190263  1
  F  F82  1  0.646020  0.040298  0.228164  1
  F  F83  1  0.146020  0.459702  0.228164  1
  F  F84  1  0.644965  0.497055  0.214393  1
  F  F85  1  0.144965  0.002945  0.214393  1
  F  F86  1  0.000122  0.613726  0.132610  1
  F  F87  1  0.500122  0.886274  0.132610  1
  F  F88  1  0.995537  0.109072  0.084688  1
  F  F89  1  0.495537  0.390928  0.084688  1
  F  F90  1  0.794600  0.836546  0.142841  1
  F  F91  1  0.294600  0.663454  0.142841  1
  F  F92  1  0.672804  0.536696  0.035453  1
  F  F93  1  0.649353  0.033021  0.034801  1
  F  F94  1  0.172804  0.963304  0.035453  1
  F  F95  1  0.149353  0.466979  0.034801  1
