# generated using pymatgen
data_Rb4H4C3O10
_symmetry_space_group_name_H-M   'P 1'
_cell_length_a   6.29033344
_cell_length_b   12.46831166
_cell_length_c   15.86052010
_cell_angle_alpha   90.00000000
_cell_angle_beta   90.00000000
_cell_angle_gamma   90.00000000
_symmetry_Int_Tables_number   1
_chemical_formula_structural   Rb4H4C3O10
_chemical_formula_sum   'Rb16 H16 C12 O40'
_cell_volume   1243.93801847
_cell_formula_units_Z   4
loop_
 _symmetry_equiv_pos_site_id
 _symmetry_equiv_pos_as_xyz
  1  'x, y, z'
loop_
 _atom_site_type_symbol
 _atom_site_label
 _atom_site_symmetry_multiplicity
 _atom_site_fract_x
 _atom_site_fract_y
 _atom_site_fract_z
 _atom_site_occupancy
  Rb  Rb0  1  0.189021  0.625116  0.623439  1
  Rb  Rb1  1  0.189021  0.625116  0.876561  1
  Rb  Rb2  1  0.179430  0.646934  0.127798  1
  Rb  Rb3  1  0.179430  0.646934  0.372202  1
  Rb  Rb4  1  0.679430  0.853066  0.627798  1
  Rb  Rb5  1  0.679430  0.853066  0.872202  1
  Rb  Rb6  1  0.689021  0.874884  0.376561  1
  Rb  Rb7  1  0.689021  0.874884  0.123439  1
  Rb  Rb8  1  0.310979  0.125116  0.876561  1
  Rb  Rb9  1  0.310979  0.125116  0.623439  1
  Rb  Rb10  1  0.320570  0.146934  0.127798  1
  Rb  Rb11  1  0.320570  0.146934  0.372202  1
  Rb  Rb12  1  0.820570  0.353066  0.872202  1
  Rb  Rb13  1  0.820570  0.353066  0.627798  1
  Rb  Rb14  1  0.810979  0.374884  0.123439  1
  Rb  Rb15  1  0.810979  0.374884  0.376561  1
  H  H16  1  0.705606  0.590859  0.592705  1
  H  H17  1  0.705606  0.590859  0.907295  1
  H  H18  1  0.628629  0.654558  0.199473  1
  H  H19  1  0.628629  0.654558  0.300527  1
  H  H20  1  0.128629  0.845442  0.699473  1
  H  H21  1  0.128629  0.845442  0.800527  1
  H  H22  1  0.205606  0.909141  0.092705  1
  H  H23  1  0.205606  0.909141  0.407295  1
  H  H24  1  0.794394  0.090859  0.907295  1
  H  H25  1  0.794394  0.090859  0.592705  1
  H  H26  1  0.871371  0.154558  0.199473  1
  H  H27  1  0.871371  0.154558  0.300527  1
  H  H28  1  0.371371  0.345442  0.699473  1
  H  H29  1  0.371371  0.345442  0.800527  1
  H  H30  1  0.294394  0.409141  0.092705  1
  H  H31  1  0.294394  0.409141  0.407295  1
  C  C32  1  0.719704  0.594420  0.750000  1
  C  C33  1  0.660637  0.626728  0.028655  1
  C  C34  1  0.660637  0.626728  0.471345  1
  C  C35  1  0.160637  0.873272  0.528655  1
  C  C36  1  0.160637  0.873272  0.971345  1
  C  C37  1  0.219704  0.905580  0.250000  1
  C  C38  1  0.780296  0.094420  0.750000  1
  C  C39  1  0.839363  0.126728  0.028655  1
  C  C40  1  0.839363  0.126728  0.471345  1
  C  C41  1  0.339363  0.373272  0.528655  1
  C  C42  1  0.339363  0.373272  0.971345  1
  C  C43  1  0.280296  0.405580  0.250000  1
  O  O44  1  0.880106  0.529652  0.750000  1
  O  O45  1  0.757531  0.567009  0.532635  1
  O  O46  1  0.757531  0.567009  0.967365  1
  O  O47  1  0.721211  0.605295  0.103973  1
  O  O48  1  0.721211  0.605295  0.396027  1
  O  O49  1  0.635858  0.628711  0.679300  1
  O  O50  1  0.635858  0.628711  0.820700  1
  O  O51  1  0.568893  0.691347  0.250000  1
  O  O52  1  0.523001  0.696060  0.008002  1
  O  O53  1  0.523001  0.696060  0.491998  1
  O  O54  1  0.023001  0.803940  0.508002  1
  O  O55  1  0.023001  0.803940  0.991998  1
  O  O56  1  0.068893  0.808653  0.750000  1
  O  O57  1  0.135858  0.871289  0.179300  1
  O  O58  1  0.135858  0.871289  0.320700  1
  O  O59  1  0.221211  0.894705  0.603973  1
  O  O60  1  0.221211  0.894705  0.896027  1
  O  O61  1  0.257531  0.932991  0.032635  1
  O  O62  1  0.257531  0.932991  0.467365  1
  O  O63  1  0.380106  0.970348  0.250000  1
  O  O64  1  0.619894  0.029652  0.750000  1
  O  O65  1  0.742469  0.067009  0.967365  1
  O  O66  1  0.742469  0.067009  0.532635  1
  O  O67  1  0.778789  0.105295  0.103973  1
  O  O68  1  0.778789  0.105295  0.396027  1
  O  O69  1  0.864142  0.128711  0.820700  1
  O  O70  1  0.864142  0.128711  0.679300  1
  O  O71  1  0.931107  0.191347  0.250000  1
  O  O72  1  0.976999  0.196060  0.008002  1
  O  O73  1  0.976999  0.196060  0.491998  1
  O  O74  1  0.476999  0.303940  0.508002  1
  O  O75  1  0.476999  0.303940  0.991998  1
  O  O76  1  0.431107  0.308653  0.750000  1
  O  O77  1  0.364142  0.371289  0.179300  1
  O  O78  1  0.364142  0.371289  0.320700  1
  O  O79  1  0.278789  0.394705  0.896027  1
  O  O80  1  0.278789  0.394705  0.603973  1
  O  O81  1  0.242469  0.432991  0.032635  1
  O  O82  1  0.242469  0.432991  0.467365  1
  O  O83  1  0.119894  0.470348  0.250000  1
