# generated using pymatgen
data_Tc2As3
_symmetry_space_group_name_H-M   'P 1'
_cell_length_a   6.66783968
_cell_length_b   6.69945225
_cell_length_c   8.06568567
_cell_angle_alpha   95.70183072
_cell_angle_beta   101.62995387
_cell_angle_gamma   104.46533687
_symmetry_Int_Tables_number   1
_chemical_formula_structural   Tc2As3
_chemical_formula_sum   'Tc8 As12'
_cell_volume   337.43275928
_cell_formula_units_Z   4
loop_
 _symmetry_equiv_pos_site_id
 _symmetry_equiv_pos_as_xyz
  1  'x, y, z'
loop_
 _atom_site_type_symbol
 _atom_site_label
 _atom_site_symmetry_multiplicity
 _atom_site_fract_x
 _atom_site_fract_y
 _atom_site_fract_z
 _atom_site_occupancy
  Tc  Tc0  1  0.915355  0.426038  0.141937  1
  Tc  Tc1  1  0.084645  0.573962  0.858063  1
  Tc  Tc2  1  0.368375  0.428646  0.132883  1
  Tc  Tc3  1  0.631625  0.571354  0.867117  1
  Tc  Tc4  1  0.531170  0.864299  0.364683  1
  Tc  Tc5  1  0.468830  0.135701  0.635317  1
  Tc  Tc6  1  0.088818  0.875914  0.375138  1
  Tc  Tc7  1  0.911182  0.124086  0.624862  1
  As  As8  1  0.736299  0.592125  0.346942  1
  As  As9  1  0.263701  0.407875  0.653058  1
  As  As10  1  0.235770  0.565943  0.385461  1
  As  As11  1  0.764230  0.434057  0.614539  1
  As  As12  1  0.859402  0.129053  0.314015  1
  As  As13  1  0.140598  0.870947  0.685985  1
  As  As14  1  0.372113  0.155113  0.320442  1
  As  As15  1  0.627887  0.844887  0.679558  1
  As  As16  1  0.545128  0.206053  0.963756  1
  As  As17  1  0.454872  0.793947  0.036244  1
  As  As18  1  0.032678  0.190084  0.950278  1
  As  As19  1  0.967322  0.809916  0.049722  1
