# generated using pymatgen
data_LiCoO2
_symmetry_space_group_name_H-M   'P 1'
_cell_length_a   5.81337475
_cell_length_b   5.81337475
_cell_length_c   5.81337475
_cell_angle_alpha   120.28818997
_cell_angle_beta   119.98317430
_cell_angle_gamma   89.76535567
_symmetry_Int_Tables_number   1
_chemical_formula_structural   LiCoO2
_chemical_formula_sum   'Li4 Co4 O8'
_cell_volume   138.63425997
_cell_formula_units_Z   4
loop_
 _symmetry_equiv_pos_site_id
 _symmetry_equiv_pos_as_xyz
  1  'x, y, z'
loop_
 _atom_site_type_symbol
 _atom_site_label
 _atom_site_symmetry_multiplicity
 _atom_site_fract_x
 _atom_site_fract_y
 _atom_site_fract_z
 _atom_site_occupancy
  Li  Li0  1  0.000000  0.000000  0.000000  1
  Li  Li1  1  0.000000  0.500000  0.500000  1
  Li  Li2  1  0.500000  0.500000  0.500000  1
  Li  Li3  1  0.000000  0.500000  0.000000  1
  Co  Co4  1  0.500000  0.000000  0.500000  1
  Co  Co5  1  0.500000  0.000000  0.000000  1
  Co  Co6  1  0.000000  0.000000  0.500000  1
  Co  Co7  1  0.500000  0.500000  0.000000  1
  O  O8  1  0.730574  0.753315  0.477258  1
  O  O9  1  0.737710  0.225882  0.488172  1
  O  O10  1  0.276057  0.753315  0.022742  1
  O  O11  1  0.737710  0.749538  0.011828  1
  O  O12  1  0.262290  0.250462  0.988172  1
  O  O13  1  0.723943  0.246685  0.977258  1
  O  O14  1  0.262290  0.774118  0.511828  1
  O  O15  1  0.269426  0.246685  0.522742  1
