# generated using pymatgen
data_Li2V(PO4)2
_symmetry_space_group_name_H-M   'P 1'
_cell_length_a   6.87935837
_cell_length_b   8.94768021
_cell_length_c   10.85989165
_cell_angle_alpha   90.00000000
_cell_angle_beta   90.00000000
_cell_angle_gamma   90.00000000
_symmetry_Int_Tables_number   1
_chemical_formula_structural   Li2V(PO4)2
_chemical_formula_sum   'Li8 V4 P8 O32'
_cell_volume   668.47301496
_cell_formula_units_Z   4
loop_
 _symmetry_equiv_pos_site_id
 _symmetry_equiv_pos_as_xyz
  1  'x, y, z'
loop_
 _atom_site_type_symbol
 _atom_site_label
 _atom_site_symmetry_multiplicity
 _atom_site_fract_x
 _atom_site_fract_y
 _atom_site_fract_z
 _atom_site_occupancy
  Li  Li0  1  0.229290  0.262444  0.008532  1
  Li  Li1  1  0.371637  0.907792  0.896022  1
  Li  Li2  1  0.128363  0.092208  0.396022  1
  Li  Li3  1  0.270710  0.737556  0.508532  1
  Li  Li4  1  0.729290  0.237556  0.991468  1
  Li  Li5  1  0.871637  0.592208  0.103978  1
  Li  Li6  1  0.628363  0.407792  0.603978  1
  Li  Li7  1  0.770710  0.762444  0.491468  1
  V  V8  1  0.256386  0.223696  0.683532  1
  V  V9  1  0.243614  0.776304  0.183532  1
  V  V10  1  0.756386  0.276304  0.316468  1
  V  V11  1  0.743614  0.723696  0.816468  1
  P  P12  1  0.970359  0.437153  0.852764  1
  P  P13  1  0.126973  0.494921  0.335710  1
  P  P14  1  0.373027  0.505079  0.835710  1
  P  P15  1  0.529641  0.562847  0.352764  1
  P  P16  1  0.470359  0.062847  0.147236  1
  P  P17  1  0.626973  0.005079  0.664290  1
  P  P18  1  0.873027  0.994921  0.164290  1
  P  P19  1  0.029641  0.937153  0.647236  1
  O  O20  1  0.972050  0.841601  0.178290  1
  O  O21  1  0.073387  0.594808  0.442383  1
  O  O22  1  0.093403  0.912343  0.514437  1
  O  O23  1  0.052565  0.287984  0.802592  1
  O  O24  1  0.116497  0.576435  0.209068  1
  O  O25  1  0.187900  0.006190  0.730620  1
  O  O26  1  0.176755  0.228823  0.542603  1
  O  O27  1  0.147100  0.555900  0.851401  1
  O  O28  1  0.352900  0.444100  0.351401  1
  O  O29  1  0.323245  0.771177  0.042603  1
  O  O30  1  0.312100  0.993810  0.230620  1
  O  O31  1  0.383503  0.423565  0.709068  1
  O  O32  1  0.447435  0.712016  0.302592  1
  O  O33  1  0.406597  0.087657  0.014437  1
  O  O34  1  0.426613  0.405192  0.942383  1
  O  O35  1  0.527950  0.158399  0.678290  1
  O  O36  1  0.472050  0.658399  0.821710  1
  O  O37  1  0.573387  0.905192  0.557617  1
  O  O38  1  0.593403  0.587657  0.485563  1
  O  O39  1  0.552565  0.212016  0.197408  1
  O  O40  1  0.616497  0.923565  0.790932  1
  O  O41  1  0.687900  0.493810  0.269380  1
  O  O42  1  0.676755  0.271177  0.457397  1
  O  O43  1  0.647100  0.944100  0.148599  1
  O  O44  1  0.852900  0.055900  0.648599  1
  O  O45  1  0.823245  0.728823  0.957397  1
  O  O46  1  0.812100  0.506190  0.769380  1
  O  O47  1  0.883503  0.076435  0.290932  1
  O  O48  1  0.947435  0.787984  0.697408  1
  O  O49  1  0.906597  0.412343  0.985563  1
  O  O50  1  0.926613  0.094808  0.057617  1
  O  O51  1  0.027950  0.341601  0.321710  1
