# generated using pymatgen
data_BaLa2PtO5
_symmetry_space_group_name_H-M   'P 1'
_cell_length_a   6.94666023
_cell_length_b   6.94666023
_cell_length_c   6.00320860
_cell_angle_alpha   90.00000000
_cell_angle_beta   90.00000000
_cell_angle_gamma   90.00000000
_symmetry_Int_Tables_number   1
_chemical_formula_structural   BaLa2PtO5
_chemical_formula_sum   'Ba2 La4 Pt2 O10'
_cell_volume   289.69136459
_cell_formula_units_Z   2
loop_
 _symmetry_equiv_pos_site_id
 _symmetry_equiv_pos_as_xyz
  1  'x, y, z'
loop_
 _atom_site_type_symbol
 _atom_site_label
 _atom_site_symmetry_multiplicity
 _atom_site_fract_x
 _atom_site_fract_y
 _atom_site_fract_z
 _atom_site_occupancy
  Ba  Ba0  1  0.000000  0.000000  0.000000  1
  Ba  Ba1  1  0.500000  0.500000  0.000000  1
  La  La2  1  0.823166  0.676834  0.500000  1
  La  La3  1  0.676834  0.176834  0.500000  1
  La  La4  1  0.323166  0.823166  0.500000  1
  La  La5  1  0.176834  0.323166  0.500000  1
  Pt  Pt6  1  0.500000  0.000000  0.000000  1
  Pt  Pt7  1  0.000000  0.500000  0.000000  1
  O  O8  1  0.500000  0.500000  0.500000  1
  O  O9  1  0.000000  0.000000  0.500000  1
  O  O10  1  0.141128  0.641128  0.248231  1
  O  O11  1  0.858872  0.358872  0.248231  1
  O  O12  1  0.358872  0.141128  0.248231  1
  O  O13  1  0.641128  0.858872  0.248231  1
  O  O14  1  0.141128  0.641128  0.751769  1
  O  O15  1  0.641128  0.858872  0.751769  1
  O  O16  1  0.858872  0.358872  0.751769  1
  O  O17  1  0.358872  0.141128  0.751769  1
