# generated using pymatgen
data_V3O5F
_symmetry_space_group_name_H-M   'P 1'
_cell_length_a   4.66361087
_cell_length_b   5.53686362
_cell_length_c   7.55285558
_cell_angle_alpha   84.76705851
_cell_angle_beta   88.37520971
_cell_angle_gamma   88.70868029
_symmetry_Int_Tables_number   1
_chemical_formula_structural   V3O5F
_chemical_formula_sum   'V6 O10 F2'
_cell_volume   194.09822449
_cell_formula_units_Z   2
loop_
 _symmetry_equiv_pos_site_id
 _symmetry_equiv_pos_as_xyz
  1  'x, y, z'
loop_
 _atom_site_type_symbol
 _atom_site_label
 _atom_site_symmetry_multiplicity
 _atom_site_fract_x
 _atom_site_fract_y
 _atom_site_fract_z
 _atom_site_occupancy
  V  V0  1  0.518604  0.834627  0.669874  1
  V  V1  1  0.493014  0.508982  0.996974  1
  V  V2  1  0.522551  0.179186  0.340278  1
  V  V3  1  0.998995  0.320586  0.674362  1
  V  V4  1  0.972778  0.652951  0.319526  1
  V  V5  1  0.994137  0.009273  0.985311  1
  O  O6  1  0.805118  0.372613  0.436342  1
  O  O7  1  0.801037  0.709546  0.096008  1
  O  O8  1  0.798906  0.019961  0.771706  1
  O  O9  1  0.689242  0.205225  0.108863  1
  O  O10  1  0.696231  0.517460  0.778801  1
  O  O11  1  0.716012  0.866622  0.424615  1
  O  O12  1  0.309664  0.136824  0.551567  1
  O  O13  1  0.298030  0.477179  0.236511  1
  O  O14  1  0.292624  0.795882  0.904497  1
  O  O15  1  0.199935  0.290300  0.910446  1
  F  F16  1  0.195032  0.967764  0.228375  1
  F  F17  1  0.198091  0.635019  0.565944  1
