# generated using pymatgen
data_Mn2Fe3Sn(PO4)6
_symmetry_space_group_name_H-M   'P 1'
_cell_length_a   8.67517222
_cell_length_b   8.67517222
_cell_length_c   8.67517222
_cell_angle_alpha   60.15159260
_cell_angle_beta   60.15159260
_cell_angle_gamma   60.15159260
_symmetry_Int_Tables_number   1
_chemical_formula_structural   Mn2Fe3Sn(PO4)6
_chemical_formula_sum   'Mn2 Fe3 Sn1 P6 O24'
_cell_volume   463.24207046
_cell_formula_units_Z   1
loop_
 _symmetry_equiv_pos_site_id
 _symmetry_equiv_pos_as_xyz
  1  'x, y, z'
loop_
 _atom_site_type_symbol
 _atom_site_label
 _atom_site_symmetry_multiplicity
 _atom_site_fract_x
 _atom_site_fract_y
 _atom_site_fract_z
 _atom_site_occupancy
  Mn  Mn0  1  0.996469  0.996469  0.996469  1
  Mn  Mn1  1  0.500663  0.500663  0.500663  1
  Fe  Fe2  1  0.853906  0.853906  0.853906  1
  Fe  Fe3  1  0.646534  0.646534  0.646534  1
  Fe  Fe4  1  0.354585  0.354585  0.354585  1
  Sn  Sn5  1  0.144544  0.144544  0.144544  1
  P  P6  1  0.746615  0.459406  0.045154  1
  P  P7  1  0.459406  0.045154  0.746615  1
  P  P8  1  0.045154  0.746615  0.459406  1
  P  P9  1  0.952878  0.252042  0.548012  1
  P  P10  1  0.548012  0.952878  0.252042  1
  P  P11  1  0.252042  0.548012  0.952878  1
  O  O12  1  0.890033  0.684245  0.496746  1
  O  O13  1  0.684245  0.496746  0.890033  1
  O  O14  1  0.938000  0.088991  0.740265  1
  O  O15  1  0.496746  0.890033  0.684245  1
  O  O16  1  0.984033  0.190061  0.392875  1
  O  O17  1  0.758321  0.413421  0.563251  1
  O  O18  1  0.740265  0.938000  0.088991  1
  O  O19  1  0.563251  0.758321  0.413421  1
  O  O20  1  0.813254  0.612175  0.005954  1
  O  O21  1  0.413421  0.563251  0.758321  1
  O  O22  1  0.909709  0.261226  0.059160  1
  O  O23  1  0.612176  0.005954  0.813254  1
  O  O24  1  0.392875  0.984033  0.190061  1
  O  O25  1  0.088991  0.740265  0.938000  1
  O  O26  1  0.587432  0.441023  0.241287  1
  O  O27  1  0.190061  0.392875  0.984033  1
  O  O28  1  0.441023  0.241287  0.587432  1
  O  O29  1  0.261226  0.059160  0.909709  1
  O  O30  1  0.241287  0.587432  0.441023  1
  O  O31  1  0.005954  0.813254  0.612175  1
  O  O32  1  0.502691  0.112759  0.312280  1
  O  O33  1  0.059160  0.909709  0.261226  1
  O  O34  1  0.312280  0.502691  0.112759  1
  O  O35  1  0.112759  0.312280  0.502691  1
