# generated using pymatgen
data_Co6OF11
_symmetry_space_group_name_H-M   'P 1'
_cell_length_a   10.64925283
_cell_length_b   10.64925283
_cell_length_c   3.21342096
_cell_angle_alpha   90.00000000
_cell_angle_beta   90.00000000
_cell_angle_gamma   143.84476763
_symmetry_Int_Tables_number   1
_chemical_formula_structural   Co6OF11
_chemical_formula_sum   'Co6 O1 F11'
_cell_volume   215.00050934
_cell_formula_units_Z   1
loop_
 _symmetry_equiv_pos_site_id
 _symmetry_equiv_pos_as_xyz
  1  'x, y, z'
loop_
 _atom_site_type_symbol
 _atom_site_label
 _atom_site_symmetry_multiplicity
 _atom_site_fract_x
 _atom_site_fract_y
 _atom_site_fract_z
 _atom_site_occupancy
  Co  Co0  1  0.981286  0.981286  0.000000  1
  Co  Co1  1  0.521257  0.521257  0.500000  1
  Co  Co2  1  0.664086  0.331046  0.000000  1
  Co  Co3  1  0.834708  0.168699  0.500000  1
  Co  Co4  1  0.168699  0.834708  0.500000  1
  Co  Co5  1  0.331046  0.664086  0.000000  1
  O  O6  1  0.707437  0.707437  0.000000  1
  F  F7  1  0.290748  0.290748  0.000000  1
  F  F8  1  0.969692  0.635982  0.000000  1
  F  F9  1  0.597109  0.394183  0.500000  1
  F  F10  1  0.730156  0.265997  0.500000  1
  F  F11  1  0.068363  0.937301  0.500000  1
  F  F12  1  0.361172  0.024836  0.000000  1
  F  F13  1  0.635982  0.969692  0.000000  1
  F  F14  1  0.937301  0.068363  0.500000  1
  F  F15  1  0.265997  0.730156  0.500000  1
  F  F16  1  0.394183  0.597109  0.500000  1
  F  F17  1  0.024836  0.361172  1.000000  1
