# generated using pymatgen
data_Ca2SnS4
_symmetry_space_group_name_H-M   'P 1'
_cell_length_a   6.83109207
_cell_length_b   6.99577412
_cell_length_c   7.79261148
_cell_angle_alpha   90.00000000
_cell_angle_beta   107.03309061
_cell_angle_gamma   90.00000000
_symmetry_Int_Tables_number   1
_chemical_formula_structural   Ca2SnS4
_chemical_formula_sum   'Ca4 Sn2 S8'
_cell_volume   356.06435017
_cell_formula_units_Z   2
loop_
 _symmetry_equiv_pos_site_id
 _symmetry_equiv_pos_as_xyz
  1  'x, y, z'
loop_
 _atom_site_type_symbol
 _atom_site_label
 _atom_site_symmetry_multiplicity
 _atom_site_fract_x
 _atom_site_fract_y
 _atom_site_fract_z
 _atom_site_occupancy
  Ca  Ca0  1  0.710964  0.250000  0.053663  1
  Ca  Ca1  1  0.289036  0.750000  0.946337  1
  Ca  Ca2  1  0.723531  0.250000  0.554038  1
  Ca  Ca3  1  0.276469  0.750000  0.445962  1
  Sn  Sn4  1  0.240642  0.250000  0.186896  1
  Sn  Sn5  1  0.759358  0.750000  0.813104  1
  S  S6  1  0.031475  0.250000  0.885082  1
  S  S7  1  0.968525  0.750000  0.114918  1
  S  S8  1  0.036234  0.250000  0.385294  1
  S  S9  1  0.963766  0.750000  0.614706  1
  S  S10  1  0.494876  0.503671  0.251683  1
  S  S11  1  0.505124  0.003671  0.748317  1
  S  S12  1  0.505124  0.496329  0.748317  1
  S  S13  1  0.494876  0.996329  0.251683  1
