# generated using pymatgen
data_Na3Zn4As3H12O19
_symmetry_space_group_name_H-M   'P 1'
_cell_length_a   10.99717503
_cell_length_b   10.99717503
_cell_length_c   10.99717503
_cell_angle_alpha   60.66908244
_cell_angle_beta   60.66908244
_cell_angle_gamma   60.66908244
_symmetry_Int_Tables_number   1
_chemical_formula_structural   Na3Zn4As3H12O19
_chemical_formula_sum   'Na6 Zn8 As6 H24 O38'
_cell_volume   954.63889091
_cell_formula_units_Z   2
loop_
 _symmetry_equiv_pos_site_id
 _symmetry_equiv_pos_as_xyz
  1  'x, y, z'
loop_
 _atom_site_type_symbol
 _atom_site_label
 _atom_site_symmetry_multiplicity
 _atom_site_fract_x
 _atom_site_fract_y
 _atom_site_fract_z
 _atom_site_occupancy
  Na  Na0  1  0.938842  0.336323  0.052443  1
  Na  Na1  1  0.836323  0.438842  0.552443  1
  Na  Na2  1  0.336323  0.052443  0.938842  1
  Na  Na3  1  0.438842  0.552443  0.836323  1
  Na  Na4  1  0.552443  0.836323  0.438842  1
  Na  Na5  1  0.052443  0.938842  0.336323  1
  Zn  Zn6  1  0.994507  0.010132  0.707543  1
  Zn  Zn7  1  0.494507  0.207543  0.510132  1
  Zn  Zn8  1  0.510132  0.494507  0.207543  1
  Zn  Zn9  1  0.000867  0.000867  0.000867  1
  Zn  Zn10  1  0.500867  0.500867  0.500867  1
  Zn  Zn11  1  0.707543  0.994507  0.010132  1
  Zn  Zn12  1  0.207543  0.510132  0.494507  1
  Zn  Zn13  1  0.010132  0.707543  0.994507  1
  As  As14  1  0.691598  0.162350  0.195738  1
  As  As15  1  0.662350  0.191598  0.695738  1
  As  As16  1  0.695738  0.662350  0.191598  1
  As  As17  1  0.162350  0.195738  0.691598  1
  As  As18  1  0.195738  0.691598  0.162350  1
  As  As19  1  0.191598  0.695738  0.662350  1
  H  H20  1  0.990256  0.250254  0.315394  1
  H  H21  1  0.853840  0.199723  0.381216  1
  H  H22  1  0.968723  0.548008  0.765907  1
  H  H23  1  0.699723  0.353840  0.881216  1
  H  H24  1  0.265907  0.048008  0.468723  1
  H  H25  1  0.750254  0.490256  0.815394  1
  H  H26  1  0.881216  0.699723  0.353840  1
  H  H27  1  0.378689  0.116177  0.324393  1
  H  H28  1  0.824393  0.616177  0.878689  1
  H  H29  1  0.468723  0.265907  0.048008  1
  H  H30  1  0.815394  0.750254  0.490256  1
  H  H31  1  0.878689  0.824393  0.616177  1
  H  H32  1  0.324393  0.378689  0.116177  1
  H  H33  1  0.250254  0.315394  0.990256  1
  H  H34  1  0.765907  0.968723  0.548008  1
  H  H35  1  0.116177  0.324393  0.378689  1
  H  H36  1  0.616177  0.878689  0.824393  1
  H  H37  1  0.199723  0.381216  0.853840  1
  H  H38  1  0.548008  0.765907  0.968723  1
  H  H39  1  0.490256  0.815394  0.750254  1
  H  H40  1  0.048008  0.468723  0.265907  1
  H  H41  1  0.381216  0.853840  0.199723  1
  H  H42  1  0.353840  0.881216  0.699723  1
  H  H43  1  0.315394  0.990256  0.250254  1
  O  O44  1  0.865831  0.037984  0.191087  1
  O  O45  1  0.950713  0.193883  0.303550  1
  O  O46  1  0.834606  0.193041  0.653933  1
  O  O47  1  0.611865  0.060519  0.864682  1
  O  O48  1  0.673129  0.144260  0.560009  1
  O  O49  1  0.644260  0.173129  0.060009  1
  O  O50  1  0.560519  0.111865  0.364682  1
  O  O51  1  0.693041  0.334606  0.153933  1
  O  O52  1  0.868067  0.541910  0.831133  1
  O  O53  1  0.331133  0.041910  0.368067  1
  O  O54  1  0.864682  0.611865  0.060519  1
  O  O55  1  0.693883  0.450713  0.803550  1
  O  O56  1  0.334606  0.153933  0.693041  1
  O  O57  1  0.537984  0.365831  0.691087  1
  O  O58  1  0.691087  0.537984  0.365831  1
  O  O59  1  0.173129  0.060009  0.644260  1
  O  O60  1  0.803550  0.693883  0.450713  1
  O  O61  1  0.368067  0.331133  0.041910  1
  O  O62  1  0.927017  0.927017  0.927017  1
  O  O63  1  0.427017  0.427017  0.427017  1
  O  O64  1  0.831133  0.868067  0.541910  1
  O  O65  1  0.193883  0.303550  0.950713  1
  O  O66  1  0.560009  0.673129  0.144260  1
  O  O67  1  0.037984  0.191087  0.865831  1
  O  O68  1  0.653933  0.834606  0.193041  1
  O  O69  1  0.364682  0.560519  0.111865  1
  O  O70  1  0.111865  0.364682  0.560519  1
  O  O71  1  0.541910  0.831133  0.868067  1
  O  O72  1  0.041910  0.368067  0.331133  1
  O  O73  1  0.365831  0.691087  0.537984  1
  O  O74  1  0.450713  0.803550  0.693883  1
  O  O75  1  0.144260  0.560009  0.673129  1
  O  O76  1  0.193041  0.653933  0.834606  1
  O  O77  1  0.153933  0.693041  0.334606  1
  O  O78  1  0.060009  0.644260  0.173129  1
  O  O79  1  0.303550  0.950713  0.193883  1
  O  O80  1  0.191087  0.865831  0.037984  1
  O  O81  1  0.060519  0.864682  0.611865  1
