# generated using pymatgen
data_Na14Co2O9
_symmetry_space_group_name_H-M   'P 1'
_cell_length_a   6.65960350
_cell_length_b   6.65960350
_cell_length_c   9.38198226
_cell_angle_alpha   90.00000000
_cell_angle_beta   90.00000000
_cell_angle_gamma   120.00000000
_symmetry_Int_Tables_number   1
_chemical_formula_structural   Na14Co2O9
_chemical_formula_sum   'Na14 Co2 O9'
_cell_volume   360.34789113
_cell_formula_units_Z   1
loop_
 _symmetry_equiv_pos_site_id
 _symmetry_equiv_pos_as_xyz
  1  'x, y, z'
loop_
 _atom_site_type_symbol
 _atom_site_label
 _atom_site_symmetry_multiplicity
 _atom_site_fract_x
 _atom_site_fract_y
 _atom_site_fract_z
 _atom_site_occupancy
  Na  Na0  1  0.036450  0.675663  0.907733  1
  Na  Na1  1  0.312340  0.934880  0.593173  1
  Na  Na2  1  0.065120  0.377460  0.593173  1
  Na  Na3  1  0.000000  0.000000  0.250951  1
  Na  Na4  1  0.000000  0.000000  0.749049  1
  Na  Na5  1  0.324337  0.360787  0.907733  1
  Na  Na6  1  0.639213  0.963550  0.907733  1
  Na  Na7  1  0.377460  0.312340  0.406827  1
  Na  Na8  1  0.622540  0.687660  0.593173  1
  Na  Na9  1  0.360787  0.036450  0.092267  1
  Na  Na10  1  0.675663  0.639213  0.092267  1
  Na  Na11  1  0.934880  0.622540  0.406827  1
  Na  Na12  1  0.687660  0.065120  0.406827  1
  Na  Na13  1  0.963550  0.324337  0.092267  1
  Co  Co14  1  0.333333  0.666667  0.261876  1
  Co  Co15  1  0.666667  0.333333  0.738124  1
  O  O16  1  0.304472  0.941399  0.336225  1
  O  O17  1  0.058601  0.363073  0.336225  1
  O  O18  1  0.333333  0.666667  0.044614  1
  O  O19  1  0.000000  0.000000  0.000000  1
  O  O20  1  0.363073  0.304472  0.663775  1
  O  O21  1  0.636927  0.695528  0.336225  1
  O  O22  1  0.666667  0.333333  0.955386  1
  O  O23  1  0.941399  0.636927  0.663775  1
  O  O24  1  0.695528  0.058601  0.663775  1
