# generated using pymatgen
data_H28RuS2(N3O5)2
_symmetry_space_group_name_H-M   'P 1'
_cell_length_a   6.33261519
_cell_length_b   10.05346249
_cell_length_c   12.63794764
_cell_angle_alpha   90.00000000
_cell_angle_beta   95.52799116
_cell_angle_gamma   90.00000000
_symmetry_Int_Tables_number   1
_chemical_formula_structural   H28RuS2(N3O5)2
_chemical_formula_sum   'H56 Ru2 S4 N12 O20'
_cell_volume   800.84931362
_cell_formula_units_Z   2
loop_
 _symmetry_equiv_pos_site_id
 _symmetry_equiv_pos_as_xyz
  1  'x, y, z'
loop_
 _atom_site_type_symbol
 _atom_site_label
 _atom_site_symmetry_multiplicity
 _atom_site_fract_x
 _atom_site_fract_y
 _atom_site_fract_z
 _atom_site_occupancy
  H  H0  1  0.835519  0.623323  0.667506  1
  H  H1  1  0.835519  0.876677  0.167506  1
  H  H2  1  0.164481  0.376677  0.332494  1
  H  H3  1  0.164481  0.123323  0.832494  1
  H  H4  1  0.680922  0.497158  0.628034  1
  H  H5  1  0.680922  0.002842  0.128034  1
  H  H6  1  0.319078  0.502842  0.371966  1
  H  H7  1  0.319078  0.997158  0.871966  1
  H  H8  1  0.903974  0.471202  0.701747  1
  H  H9  1  0.903974  0.028798  0.201747  1
  H  H10  1  0.096026  0.528798  0.298253  1
  H  H11  1  0.096026  0.971202  0.798253  1
  H  H12  1  0.620457  0.376925  0.477337  1
  H  H13  1  0.620457  0.123075  0.977337  1
  H  H14  1  0.379543  0.623075  0.522663  1
  H  H15  1  0.379543  0.876925  0.022663  1
  H  H16  1  0.716468  0.378459  0.358259  1
  H  H17  1  0.716468  0.121541  0.858259  1
  H  H18  1  0.283532  0.621541  0.641741  1
  H  H19  1  0.283532  0.878459  0.141741  1
  H  H20  1  0.804377  0.271001  0.449610  1
  H  H21  1  0.804377  0.228999  0.949610  1
  H  H22  1  0.195623  0.728999  0.550390  1
  H  H23  1  0.195623  0.771001  0.050390  1
  H  H24  1  0.150380  0.034529  0.588669  1
  H  H25  1  0.150380  0.465471  0.088669  1
  H  H26  1  0.849620  0.965471  0.411331  1
  H  H27  1  0.849620  0.534529  0.911331  1
  H  H28  1  0.047273  0.891380  0.576477  1
  H  H29  1  0.047273  0.608620  0.076477  1
  H  H30  1  0.952727  0.108620  0.423523  1
  H  H31  1  0.952727  0.391380  0.923523  1
  H  H32  1  0.390319  0.767482  0.342195  1
  H  H33  1  0.390319  0.732518  0.842195  1
  H  H34  1  0.609681  0.232518  0.657805  1
  H  H35  1  0.609681  0.267482  0.157805  1
  H  H36  1  0.141719  0.791485  0.314743  1
  H  H37  1  0.141719  0.708515  0.814743  1
  H  H38  1  0.858281  0.208515  0.685257  1
  H  H39  1  0.858281  0.291485  0.185257  1
  H  H40  1  0.566390  0.097194  0.359928  1
  H  H41  1  0.566390  0.402806  0.859928  1
  H  H42  1  0.433610  0.902806  0.640072  1
  H  H43  1  0.433610  0.597194  0.140072  1
  H  H44  1  0.351220  0.995977  0.346274  1
  H  H45  1  0.351220  0.504023  0.846274  1
  H  H46  1  0.648780  0.004023  0.653726  1
  H  H47  1  0.648780  0.495977  0.153726  1
  H  H48  1  0.339697  0.139380  0.418919  1
  H  H49  1  0.339697  0.360620  0.918919  1
  H  H50  1  0.660303  0.860620  0.581081  1
  H  H51  1  0.660303  0.639380  0.081081  1
  H  H52  1  0.334442  0.144908  0.285065  1
  H  H53  1  0.334442  0.355092  0.785065  1
  H  H54  1  0.665558  0.855092  0.714935  1
  H  H55  1  0.665558  0.644908  0.214935  1
  Ru  Ru56  1  0.000000  0.500000  0.500000  1
  Ru  Ru57  1  0.000000  0.000000  0.000000  1
  S  S58  1  0.811889  0.676689  0.421800  1
  S  S59  1  0.811889  0.823311  0.921800  1
  S  S60  1  0.188111  0.323311  0.578200  1
  S  S61  1  0.188111  0.176689  0.078200  1
  N  N62  1  0.836612  0.527802  0.639786  1
  N  N63  1  0.836612  0.972198  0.139786  1
  N  N64  1  0.163388  0.472198  0.360214  1
  N  N65  1  0.163388  0.027802  0.860214  1
  N  N66  1  0.755152  0.367168  0.438340  1
  N  N67  1  0.755152  0.132832  0.938340  1
  N  N68  1  0.244848  0.632832  0.561660  1
  N  N69  1  0.244848  0.867168  0.061660  1
  N  N70  1  0.400790  0.095712  0.352914  1
  N  N71  1  0.400790  0.404288  0.852914  1
  N  N72  1  0.599210  0.904288  0.647086  1
  N  N73  1  0.599210  0.595712  0.147086  1
  O  O74  1  0.882129  0.715747  0.313434  1
  O  O75  1  0.882129  0.784253  0.813434  1
  O  O76  1  0.117871  0.284253  0.686566  1
  O  O77  1  0.117871  0.215747  0.186566  1
  O  O78  1  0.574049  0.648791  0.403305  1
  O  O79  1  0.574049  0.851209  0.903305  1
  O  O80  1  0.425951  0.351209  0.596695  1
  O  O81  1  0.425951  0.148791  0.096695  1
  O  O82  1  0.835403  0.805107  0.490095  1
  O  O83  1  0.835403  0.694893  0.990095  1
  O  O84  1  0.164597  0.194893  0.509905  1
  O  O85  1  0.164597  0.305107  0.009905  1
  O  O86  1  0.155909  0.943428  0.619516  1
  O  O87  1  0.155909  0.556572  0.119516  1
  O  O88  1  0.844091  0.056572  0.380484  1
  O  O89  1  0.844091  0.443428  0.880484  1
  O  O90  1  0.283546  0.832086  0.309896  1
  O  O91  1  0.283546  0.667914  0.809896  1
  O  O92  1  0.716454  0.167914  0.690104  1
  O  O93  1  0.716454  0.332086  0.190104  1
