# generated using pymatgen
data_Li2Mn3(BO3)3
_symmetry_space_group_name_H-M   'P 1'
_cell_length_a   6.32098916
_cell_length_b   8.28454729
_cell_length_c   8.74477718
_cell_angle_alpha   118.25826926
_cell_angle_beta   110.27820436
_cell_angle_gamma   88.94811117
_symmetry_Int_Tables_number   1
_chemical_formula_structural   Li2Mn3(BO3)3
_chemical_formula_sum   'Li4 Mn6 B6 O18'
_cell_volume   372.42672589
_cell_formula_units_Z   2
loop_
 _symmetry_equiv_pos_site_id
 _symmetry_equiv_pos_as_xyz
  1  'x, y, z'
loop_
 _atom_site_type_symbol
 _atom_site_label
 _atom_site_symmetry_multiplicity
 _atom_site_fract_x
 _atom_site_fract_y
 _atom_site_fract_z
 _atom_site_occupancy
  Li  Li0  1  0.905731  0.984896  0.284489  1
  Li  Li1  1  0.385970  0.978084  0.286467  1
  Li  Li2  1  0.083456  0.721916  0.703657  1
  Li  Li3  1  0.767849  0.294091  0.016838  1
  Mn  Mn4  1  0.182818  0.371444  0.374421  1
  Mn  Mn5  1  0.665003  0.363925  0.358265  1
  Mn  Mn6  1  0.503967  0.648778  0.971991  1
  Mn  Mn7  1  0.007098  0.599411  0.977644  1
  Mn  Mn8  1  0.321293  0.014521  0.670660  1
  Mn  Mn9  1  0.808817  0.004713  0.638192  1
  B  B10  1  0.396231  0.670868  0.323620  1
  B  B11  1  0.928143  0.669710  0.332640  1
  B  B12  1  0.078309  0.330881  0.656171  1
  B  B13  1  0.593583  0.331057  0.670515  1
  B  B14  1  0.002167  0.993688  0.007258  1
  B  B15  1  0.505220  0.002797  0.011515  1
  O  O16  1  0.059929  0.895378  0.104563  1
  O  O17  1  0.576528  0.934117  0.137941  1
  O  O18  1  0.975102  0.859960  0.439951  1
  O  O19  1  0.466660  0.857987  0.451476  1
  O  O20  1  0.321202  0.612529  0.132054  1
  O  O21  1  0.854914  0.579718  0.136111  1
  O  O22  1  0.381117  0.878282  0.823623  1
  O  O23  1  0.908992  0.902154  0.814751  1
  O  O24  1  0.946581  0.560485  0.416898  1
  O  O25  1  0.405515  0.539933  0.381102  1
  O  O26  1  0.038506  0.188016  0.105429  1
  O  O27  1  0.560589  0.189732  0.076422  1
  O  O28  1  0.137624  0.525883  0.775477  1
  O  O29  1  0.690105  0.521313  0.787581  1
  O  O30  1  0.008317  0.259671  0.461882  1
  O  O31  1  0.484268  0.263129  0.478204  1
  O  O32  1  0.082936  0.216636  0.727791  1
  O  O33  1  0.607273  0.217987  0.748023  1
