# generated using pymatgen
data_LiFeF3
_symmetry_space_group_name_H-M   'P 1'
_cell_length_a   3.20521313
_cell_length_b   7.40751810
_cell_length_c   5.89535151
_cell_angle_alpha   90.00000000
_cell_angle_beta   122.99043016
_cell_angle_gamma   90.00000000
_symmetry_Int_Tables_number   1
_chemical_formula_structural   LiFeF3
_chemical_formula_sum   'Li2 Fe2 F6'
_cell_volume   117.40263399
_cell_formula_units_Z   2
loop_
 _symmetry_equiv_pos_site_id
 _symmetry_equiv_pos_as_xyz
  1  'x, y, z'
loop_
 _atom_site_type_symbol
 _atom_site_label
 _atom_site_symmetry_multiplicity
 _atom_site_fract_x
 _atom_site_fract_y
 _atom_site_fract_z
 _atom_site_occupancy
  Li  Li0  1  0.971726  0.250000  0.467758  1
  Li  Li1  1  0.028274  0.750000  0.532242  1
  Fe  Fe2  1  0.000000  0.000000  0.000000  1
  Fe  Fe3  1  0.000000  0.500000  0.000000  1
  F  F4  1  0.727931  0.567388  0.243757  1
  F  F5  1  0.727931  0.932612  0.243757  1
  F  F6  1  0.233990  0.250000  0.231344  1
  F  F7  1  0.272069  0.432612  0.756243  1
  F  F8  1  0.272069  0.067388  0.756243  1
  F  F9  1  0.766010  0.750000  0.768656  1
