# generated using pymatgen
data_Mg3Ag
_symmetry_space_group_name_H-M   'P 1'
_cell_length_a   6.16754137
_cell_length_b   6.16754137
_cell_length_c   4.91620558
_cell_angle_alpha   90.00000000
_cell_angle_beta   90.00000000
_cell_angle_gamma   120.00000000
_symmetry_Int_Tables_number   1
_chemical_formula_structural   Mg3Ag
_chemical_formula_sum   'Mg6 Ag2'
_cell_volume   161.95143848
_cell_formula_units_Z   2
loop_
 _symmetry_equiv_pos_site_id
 _symmetry_equiv_pos_as_xyz
  1  'x, y, z'
loop_
 _atom_site_type_symbol
 _atom_site_label
 _atom_site_symmetry_multiplicity
 _atom_site_fract_x
 _atom_site_fract_y
 _atom_site_fract_z
 _atom_site_occupancy
  Mg  Mg0  1  0.170451  0.340902  0.250000  1
  Mg  Mg1  1  0.170451  0.829549  0.250000  1
  Mg  Mg2  1  0.659098  0.829549  0.250000  1
  Mg  Mg3  1  0.340902  0.170451  0.750000  1
  Mg  Mg4  1  0.829549  0.170451  0.750000  1
  Mg  Mg5  1  0.829549  0.659098  0.750000  1
  Ag  Ag6  1  0.666667  0.333333  0.250000  1
  Ag  Ag7  1  0.333333  0.666667  0.750000  1
