# generated using pymatgen
data_LiMn(Si2O5)2
_symmetry_space_group_name_H-M   'P 1'
_cell_length_a   7.29633663
_cell_length_b   7.29633663
_cell_length_c   14.99206395
_cell_angle_alpha   90.00000000
_cell_angle_beta   90.00000000
_cell_angle_gamma   90.00000000
_symmetry_Int_Tables_number   1
_chemical_formula_structural   LiMn(Si2O5)2
_chemical_formula_sum   'Li4 Mn4 Si16 O40'
_cell_volume   798.12543552
_cell_formula_units_Z   4
loop_
 _symmetry_equiv_pos_site_id
 _symmetry_equiv_pos_as_xyz
  1  'x, y, z'
loop_
 _atom_site_type_symbol
 _atom_site_label
 _atom_site_symmetry_multiplicity
 _atom_site_fract_x
 _atom_site_fract_y
 _atom_site_fract_z
 _atom_site_occupancy
  Li  Li0  1  0.500000  0.500000  0.000000  1
  Li  Li1  1  0.500000  0.500000  0.500000  1
  Li  Li2  1  0.000000  0.000000  0.500000  1
  Li  Li3  1  0.000000  0.000000  0.000000  1
  Mn  Mn4  1  0.500000  0.000000  0.575482  1
  Mn  Mn5  1  0.500000  0.000000  0.075482  1
  Mn  Mn6  1  0.000000  0.500000  0.424518  1
  Mn  Mn7  1  0.000000  0.500000  0.924518  1
  Si  Si8  1  0.247173  0.828603  0.355306  1
  Si  Si9  1  0.247173  0.171397  0.855306  1
  Si  Si10  1  0.328603  0.747173  0.855306  1
  Si  Si11  1  0.328603  0.252827  0.355306  1
  Si  Si12  1  0.671397  0.252827  0.855306  1
  Si  Si13  1  0.671397  0.747173  0.355306  1
  Si  Si14  1  0.752827  0.828603  0.855306  1
  Si  Si15  1  0.752827  0.171397  0.355306  1
  Si  Si16  1  0.747173  0.671397  0.144694  1
  Si  Si17  1  0.747173  0.328603  0.644694  1
  Si  Si18  1  0.828603  0.247173  0.144694  1
  Si  Si19  1  0.828603  0.752827  0.644694  1
  Si  Si20  1  0.171397  0.752827  0.144694  1
  Si  Si21  1  0.171397  0.247173  0.644694  1
  Si  Si22  1  0.252827  0.671397  0.644694  1
  Si  Si23  1  0.252827  0.328603  0.144694  1
  O  O24  1  0.247640  0.048565  0.377241  1
  O  O25  1  0.247640  0.951435  0.877241  1
  O  O26  1  0.253982  0.909786  0.080040  1
  O  O27  1  0.253982  0.090214  0.580040  1
  O  O28  1  0.296521  0.296521  0.250000  1
  O  O29  1  0.296521  0.703479  0.750000  1
  O  O30  1  0.409786  0.753982  0.580040  1
  O  O31  1  0.409786  0.246018  0.080040  1
  O  O32  1  0.451435  0.747640  0.377241  1
  O  O33  1  0.451435  0.252360  0.877241  1
  O  O34  1  0.548565  0.252360  0.377241  1
  O  O35  1  0.548565  0.747640  0.877241  1
  O  O36  1  0.590214  0.753982  0.080040  1
  O  O37  1  0.590214  0.246018  0.580040  1
  O  O38  1  0.703479  0.296521  0.750000  1
  O  O39  1  0.703479  0.703479  0.250000  1
  O  O40  1  0.746018  0.090214  0.080040  1
  O  O41  1  0.746018  0.909786  0.580040  1
  O  O42  1  0.752360  0.951435  0.377241  1
  O  O43  1  0.752360  0.048565  0.877241  1
  O  O44  1  0.747640  0.548565  0.622759  1
  O  O45  1  0.747640  0.451435  0.122759  1
  O  O46  1  0.753982  0.590214  0.419960  1
  O  O47  1  0.753982  0.409786  0.919960  1
  O  O48  1  0.796521  0.203479  0.250000  1
  O  O49  1  0.796521  0.796521  0.750000  1
  O  O50  1  0.909786  0.253982  0.419960  1
  O  O51  1  0.909786  0.746018  0.919960  1
  O  O52  1  0.951435  0.752360  0.122759  1
  O  O53  1  0.951435  0.247640  0.622759  1
  O  O54  1  0.048565  0.247640  0.122759  1
  O  O55  1  0.048565  0.752360  0.622759  1
  O  O56  1  0.090214  0.746018  0.419960  1
  O  O57  1  0.090214  0.253982  0.919960  1
  O  O58  1  0.203479  0.796521  0.250000  1
  O  O59  1  0.203479  0.203479  0.750000  1
  O  O60  1  0.246018  0.409786  0.419960  1
  O  O61  1  0.246018  0.590214  0.919960  1
  O  O62  1  0.252360  0.548565  0.122759  1
  O  O63  1  0.252360  0.451435  0.622759  1
