# generated using pymatgen
data_Li8MnFe7(BO3)8
_symmetry_space_group_name_H-M   'P 1'
_cell_length_a   5.22889336
_cell_length_b   9.05516053
_cell_length_c   11.51277215
_cell_angle_alpha   112.15346438
_cell_angle_beta   102.53605460
_cell_angle_gamma   89.78292161
_symmetry_Int_Tables_number   1
_chemical_formula_structural   Li8MnFe7(BO3)8
_chemical_formula_sum   'Li8 Mn1 Fe7 B8 O24'
_cell_volume   490.99372046
_cell_formula_units_Z   1
loop_
 _symmetry_equiv_pos_site_id
 _symmetry_equiv_pos_as_xyz
  1  'x, y, z'
loop_
 _atom_site_type_symbol
 _atom_site_label
 _atom_site_symmetry_multiplicity
 _atom_site_fract_x
 _atom_site_fract_y
 _atom_site_fract_z
 _atom_site_occupancy
  Li  Li0  1  0.029904  0.041937  0.416575  1
  Li  Li1  1  0.293054  0.283060  0.915689  1
  Li  Li2  1  0.483658  0.506659  0.666800  1
  Li  Li3  1  0.269239  0.242957  0.166067  1
  Li  Li4  1  0.528140  0.540557  0.416483  1
  Li  Li5  1  0.794933  0.785242  0.916595  1
  Li  Li6  1  0.987608  0.008143  0.668742  1
  Li  Li7  1  0.768463  0.746005  0.166249  1
  Mn  Mn8  1  0.241003  0.566459  0.131882  1
  Fe  Fe9  1  0.030585  0.357271  0.384931  1
  Fe  Fe10  1  0.278640  0.932742  0.882288  1
  Fe  Fe11  1  0.470776  0.150857  0.629961  1
  Fe  Fe12  1  0.529427  0.855797  0.383480  1
  Fe  Fe13  1  0.765708  0.432688  0.878721  1
  Fe  Fe14  1  0.747355  0.070175  0.134384  1
  Fe  Fe15  1  0.971342  0.655848  0.631933  1
  B  B16  1  0.022169  0.686102  0.377831  1
  B  B17  1  0.266344  0.603957  0.875041  1
  B  B18  1  0.236455  0.895650  0.127541  1
  B  B19  1  0.474445  0.814821  0.626386  1
  B  B20  1  0.522324  0.185250  0.376898  1
  B  B21  1  0.768629  0.103691  0.875577  1
  B  B22  1  0.732054  0.391499  0.124994  1
  B  B23  1  0.973480  0.316405  0.626449  1
  O  O24  1  0.023817  0.104702  0.862145  1
  O  O25  1  0.101683  0.714744  0.845560  1
  O  O26  1  0.166913  0.493387  0.914660  1
  O  O27  1  0.083642  0.172873  0.614351  1
  O  O28  1  0.101595  0.428070  0.596200  1
  O  O29  1  0.238185  0.843689  0.664220  1
  O  O30  1  0.268720  0.660714  0.349054  1
  O  O31  1  0.523963  0.606820  0.862902  1
  O  O32  1  0.602484  0.213388  0.845432  1
  O  O33  1  0.402305  0.081810  0.417344  1
  O  O34  1  0.396161  0.315076  0.363528  1
  O  O35  1  0.668516  0.993867  0.916215  1
  O  O36  1  0.341352  0.013554  0.096387  1
  O  O37  1  0.584293  0.671291  0.613775  1
  O  O38  1  0.602824  0.927755  0.597460  1
  O  O39  1  0.402967  0.795155  0.168410  1
  O  O40  1  0.464203  0.370443  0.111255  1
  O  O41  1  0.737249  0.345574  0.664715  1
  O  O42  1  0.767710  0.159091  0.346816  1
  O  O43  1  0.901312  0.580962  0.416107  1
  O  O44  1  0.896875  0.816428  0.364825  1
  O  O45  1  0.833918  0.511853  0.095211  1
  O  O46  1  0.900833  0.291326  0.165899  1
  O  O47  1  0.965946  0.876859  0.113630  1
