# generated using pymatgen
data_K4IrO4
_symmetry_space_group_name_H-M   'P 1'
_cell_length_a   5.65660808
_cell_length_b   5.65660808
_cell_length_c   6.27973945
_cell_angle_alpha   76.48519622
_cell_angle_beta   103.51480378
_cell_angle_gamma   110.97782799
_symmetry_Int_Tables_number   1
_chemical_formula_structural   K4IrO4
_chemical_formula_sum   'K4 Ir1 O4'
_cell_volume   179.91267768
_cell_formula_units_Z   1
loop_
 _symmetry_equiv_pos_site_id
 _symmetry_equiv_pos_as_xyz
  1  'x, y, z'
loop_
 _atom_site_type_symbol
 _atom_site_label
 _atom_site_symmetry_multiplicity
 _atom_site_fract_x
 _atom_site_fract_y
 _atom_site_fract_z
 _atom_site_occupancy
  K  K0  1  0.378131  0.621869  0.134197  1
  K  K1  1  0.806473  0.193527  0.417389  1
  K  K2  1  0.621869  0.378131  0.865803  1
  K  K3  1  0.193527  0.806473  0.582611  1
  Ir  Ir4  1  0.000000  0.000000  0.000000  1
  O  O5  1  0.897065  0.676497  0.199151  1
  O  O6  1  0.323503  0.102935  0.199151  1
  O  O7  1  0.676497  0.897065  0.800849  1
  O  O8  1  0.102935  0.323503  0.800849  1
