# generated using pymatgen
data_Li8V3P8O29
_symmetry_space_group_name_H-M   'P 1'
_cell_length_a   9.90643589
_cell_length_b   9.90643589
_cell_length_c   13.85928170
_cell_angle_alpha   89.92683958
_cell_angle_beta   90.07316042
_cell_angle_gamma   120.01536047
_symmetry_Int_Tables_number   1
_chemical_formula_structural   Li8V3P8O29
_chemical_formula_sum   'Li16 V6 P16 O58'
_cell_volume   1177.71039102
_cell_formula_units_Z   2
loop_
 _symmetry_equiv_pos_site_id
 _symmetry_equiv_pos_as_xyz
  1  'x, y, z'
loop_
 _atom_site_type_symbol
 _atom_site_label
 _atom_site_symmetry_multiplicity
 _atom_site_fract_x
 _atom_site_fract_y
 _atom_site_fract_z
 _atom_site_occupancy
  Li  Li0  1  0.224645  0.315864  0.936498  1
  Li  Li1  1  0.091987  0.317189  0.439609  1
  Li  Li2  1  0.684136  0.775355  0.436498  1
  Li  Li3  1  0.337530  0.670086  0.120181  1
  Li  Li4  1  0.329914  0.662470  0.620181  1
  Li  Li5  1  0.682811  0.908013  0.939609  1
  Li  Li6  1  0.775250  0.091564  0.560602  1
  Li  Li7  1  0.092492  0.773608  0.936823  1
  Li  Li8  1  0.908436  0.224750  0.060602  1
  Li  Li9  1  0.226392  0.907508  0.436823  1
  Li  Li10  1  0.315578  0.091723  0.063462  1
  Li  Li11  1  0.664426  0.329486  0.379840  1
  Li  Li12  1  0.670514  0.335574  0.879840  1
  Li  Li13  1  0.319154  0.227112  0.563023  1
  Li  Li14  1  0.908277  0.684422  0.563462  1
  Li  Li15  1  0.772888  0.680846  0.063023  1
  V  V16  1  0.430323  0.431225  0.750382  1
  V  V17  1  0.568775  0.569677  0.250382  1
  V  V18  1  0.999952  0.431445  0.249875  1
  V  V19  1  0.999156  0.569318  0.749752  1
  V  V20  1  0.568555  0.000048  0.749875  1
  V  V21  1  0.430682  0.000844  0.249752  1
  P  P22  1  0.233978  0.325578  0.156499  1
  P  P23  1  0.089283  0.324100  0.657332  1
  P  P24  1  0.674422  0.766022  0.656499  1
  P  P25  1  0.330267  0.665501  0.377627  1
  P  P26  1  0.334499  0.669733  0.877627  1
  P  P27  1  0.675900  0.910717  0.157332  1
  P  P28  1  0.766670  0.091008  0.342811  1
  P  P29  1  0.088699  0.765767  0.156380  1
  P  P30  1  0.908992  0.233330  0.842811  1
  P  P31  1  0.234233  0.911301  0.656380  1
  P  P32  1  0.324002  0.089375  0.843908  1
  P  P33  1  0.669289  0.335748  0.122380  1
  P  P34  1  0.664252  0.330711  0.622380  1
  P  P35  1  0.324590  0.235284  0.343113  1
  P  P36  1  0.910625  0.675998  0.343908  1
  P  P37  1  0.764716  0.675410  0.843113  1
  O  O38  1  0.219341  0.222435  0.250197  1
  O  O39  1  0.249248  0.254180  0.432458  1
  O  O40  1  0.245849  0.327208  0.657173  1
  O  O41  1  0.003111  0.248592  0.931822  1
  O  O42  1  0.080135  0.330706  0.156136  1
  O  O43  1  0.371085  0.491989  0.171321  1
  O  O44  1  0.333686  0.520300  0.841877  1
  O  O45  1  0.508011  0.628915  0.671321  1
  O  O46  1  0.745820  0.750752  0.932458  1
  O  O47  1  0.777565  0.780659  0.750197  1
  O  O48  1  0.672792  0.754151  0.157173  1
  O  O49  1  0.179324  0.515216  0.331244  1
  O  O50  1  0.479700  0.666314  0.341877  1
  O  O51  1  0.119512  0.490652  0.675441  1
  O  O52  1  0.313582  0.648887  0.485454  1
  O  O53  1  0.351113  0.686418  0.985454  1
  O  O54  1  0.114868  0.624574  0.171899  1
  O  O55  1  0.484784  0.820676  0.831244  1
  O  O56  1  0.187123  0.672192  0.842029  1
  O  O57  1  0.669294  0.919865  0.656136  1
  O  O58  1  0.782636  0.002752  0.249613  1
  O  O59  1  0.751408  0.996889  0.431822  1
  O  O60  1  0.509348  0.880488  0.175441  1
  O  O61  1  0.750988  0.005397  0.068007  1
  O  O62  1  0.327808  0.812877  0.342029  1
  O  O63  1  0.375426  0.885132  0.671899  1
  O  O64  1  0.749984  0.079757  0.843416  1
  O  O65  1  0.082685  0.753490  0.655854  1
  O  O66  1  0.997248  0.217364  0.749613  1
  O  O67  1  0.994603  0.249012  0.568007  1
  O  O68  1  0.004742  0.752765  0.433000  1
  O  O69  1  0.999233  0.778620  0.250060  1
  O  O70  1  0.920243  0.250016  0.343416  1
  O  O71  1  0.246510  0.917315  0.155854  1
  O  O72  1  0.629412  0.119709  0.327056  1
  O  O73  1  0.663529  0.179368  0.668359  1
  O  O74  1  0.490963  0.114838  0.828128  1
  O  O75  1  0.247235  0.995258  0.933000  1
  O  O76  1  0.250998  0.004777  0.567191  1
  O  O77  1  0.221380  0.000767  0.750060  1
  O  O78  1  0.326738  0.081205  0.342842  1
  O  O79  1  0.820632  0.336471  0.168359  1
  O  O80  1  0.519802  0.187161  0.157801  1
  O  O81  1  0.880291  0.370588  0.827056  1
  O  O82  1  0.685932  0.336875  0.014523  1
  O  O83  1  0.663125  0.314068  0.514523  1
  O  O84  1  0.885162  0.509037  0.328128  1
  O  O85  1  0.514449  0.327968  0.658714  1
  O  O86  1  0.812839  0.480198  0.657801  1
  O  O87  1  0.330945  0.247338  0.845157  1
  O  O88  1  0.248060  0.246235  0.067479  1
  O  O89  1  0.491809  0.371272  0.326018  1
  O  O90  1  0.672032  0.485551  0.158714  1
  O  O91  1  0.628728  0.508191  0.826018  1
  O  O92  1  0.918795  0.673262  0.842842  1
  O  O93  1  0.995223  0.749002  0.067191  1
  O  O94  1  0.752662  0.669055  0.345157  1
  O  O95  1  0.753765  0.751940  0.567479  1
