# generated using pymatgen
data_Li4Mn3Fe(BO3)4
_symmetry_space_group_name_H-M   'P 1'
_cell_length_a   5.27692491
_cell_length_b   6.06409351
_cell_length_c   8.97783796
_cell_angle_alpha   102.55203706
_cell_angle_beta   90.79665317
_cell_angle_gamma   113.56846064
_symmetry_Int_Tables_number   1
_chemical_formula_structural   Li4Mn3Fe(BO3)4
_chemical_formula_sum   'Li4 Mn3 Fe1 B4 O12'
_cell_volume   255.39368223
_cell_formula_units_Z   1
loop_
 _symmetry_equiv_pos_site_id
 _symmetry_equiv_pos_as_xyz
  1  'x, y, z'
loop_
 _atom_site_type_symbol
 _atom_site_label
 _atom_site_symmetry_multiplicity
 _atom_site_fract_x
 _atom_site_fract_y
 _atom_site_fract_z
 _atom_site_occupancy
  Li  Li0  1  0.596649  0.326174  0.965284  1
  Li  Li1  1  0.100438  0.331364  0.467543  1
  Li  Li2  1  0.903795  0.671549  0.533892  1
  Li  Li3  1  0.403365  0.672134  0.033204  1
  Mn  Mn4  1  0.546473  0.234190  0.294120  1
  Mn  Mn5  1  0.043165  0.230244  0.791374  1
  Mn  Mn6  1  0.954165  0.765924  0.207062  1
  Fe  Fe7  1  0.451314  0.765059  0.709911  1
  B  B8  1  0.558095  0.260348  0.633067  1
  B  B9  1  0.939121  0.738860  0.864947  1
  B  B10  1  0.059082  0.262755  0.132309  1
  B  B11  1  0.442450  0.738495  0.369210  1
  O  O12  1  0.620986  0.170166  0.753554  1
  O  O13  1  0.729776  0.296749  0.517022  1
  O  O14  1  0.831702  0.324517  0.134972  1
  O  O15  1  0.332145  0.323955  0.635532  1
  O  O16  1  0.122941  0.173957  0.253270  1
  O  O17  1  0.773565  0.701573  0.983023  1
  O  O18  1  0.228065  0.297913  0.015151  1
  O  O19  1  0.867343  0.822746  0.743861  1
  O  O20  1  0.669081  0.675293  0.365255  1
  O  O21  1  0.172893  0.684720  0.861794  1
  O  O22  1  0.276943  0.706544  0.487475  1
  O  O23  1  0.376447  0.824769  0.247168  1
