# generated using pymatgen
data_Ca3Sn2S7
_symmetry_space_group_name_H-M   'P 1'
_cell_length_a   12.71018768
_cell_length_b   12.71018768
_cell_length_c   6.99224630
_cell_angle_alpha   90.00000000
_cell_angle_beta   90.00000000
_cell_angle_gamma   147.73884124
_symmetry_Int_Tables_number   1
_chemical_formula_structural   Ca3Sn2S7
_chemical_formula_sum   'Ca6 Sn4 S14'
_cell_volume   602.95139638
_cell_formula_units_Z   2
loop_
 _symmetry_equiv_pos_site_id
 _symmetry_equiv_pos_as_xyz
  1  'x, y, z'
loop_
 _atom_site_type_symbol
 _atom_site_label
 _atom_site_symmetry_multiplicity
 _atom_site_fract_x
 _atom_site_fract_y
 _atom_site_fract_z
 _atom_site_occupancy
  Ca  Ca0  1  0.500000  0.000000  0.500000  1
  Ca  Ca1  1  0.000000  0.500000  0.000000  1
  Ca  Ca2  1  0.710003  0.850947  0.500000  1
  Ca  Ca3  1  0.289997  0.149053  0.500000  1
  Ca  Ca4  1  0.149053  0.289997  1.000000  1
  Ca  Ca5  1  0.850947  0.710003  1.000000  1
  Sn  Sn6  1  0.898952  0.614994  0.500000  1
  Sn  Sn7  1  0.101048  0.385006  0.500000  1
  Sn  Sn8  1  0.385006  0.101048  1.000000  1
  Sn  Sn9  1  0.614994  0.898952  1.000000  1
  S  S10  1  0.000000  0.500000  0.500000  1
  S  S11  1  0.500000  0.000000  1.000000  1
  S  S12  1  0.174064  0.825936  0.250000  1
  S  S13  1  0.825936  0.174064  0.250000  1
  S  S14  1  0.825936  0.174064  0.750000  1
  S  S15  1  0.174064  0.825936  0.750000  1
  S  S16  1  0.880087  0.792801  0.500000  1
  S  S17  1  0.119913  0.207199  0.500000  1
  S  S18  1  0.207199  0.119913  1.000000  1
  S  S19  1  0.792801  0.880087  1.000000  1
  S  S20  1  0.377472  0.622528  0.250000  1
  S  S21  1  0.622528  0.377472  0.250000  1
  S  S22  1  0.622528  0.377472  0.750000  1
  S  S23  1  0.377472  0.622528  0.750000  1
