# generated using pymatgen
data_Na5TaO5
_symmetry_space_group_name_H-M   'P 1'
_cell_length_a   6.07537621
_cell_length_b   6.07537621
_cell_length_c   10.12679693
_cell_angle_alpha   81.41661805
_cell_angle_beta   98.58338195
_cell_angle_gamma   63.04721176
_symmetry_Int_Tables_number   1
_chemical_formula_structural   Na5TaO5
_chemical_formula_sum   'Na10 Ta2 O10'
_cell_volume   319.31926266
_cell_formula_units_Z   2
loop_
 _symmetry_equiv_pos_site_id
 _symmetry_equiv_pos_as_xyz
  1  'x, y, z'
loop_
 _atom_site_type_symbol
 _atom_site_label
 _atom_site_symmetry_multiplicity
 _atom_site_fract_x
 _atom_site_fract_y
 _atom_site_fract_z
 _atom_site_occupancy
  Na  Na0  1  0.322166  0.994846  0.077627  1
  Na  Na1  1  0.994846  0.322166  0.422373  1
  Na  Na2  1  0.444037  0.784675  0.449769  1
  Na  Na3  1  0.784675  0.444037  0.050231  1
  Na  Na4  1  0.555963  0.215325  0.550231  1
  Na  Na5  1  0.215325  0.555963  0.949769  1
  Na  Na6  1  0.668585  0.668585  0.750000  1
  Na  Na7  1  0.331415  0.331415  0.250000  1
  Na  Na8  1  0.005154  0.677834  0.577627  1
  Na  Na9  1  0.677834  0.005154  0.922373  1
  Ta  Ta10  1  0.092790  0.092790  0.750000  1
  Ta  Ta11  1  0.907210  0.907210  0.250000  1
  O  O12  1  0.908186  0.908186  0.750000  1
  O  O13  1  0.091814  0.091814  0.250000  1
  O  O14  1  0.303803  0.039810  0.619138  1
  O  O15  1  0.039810  0.303803  0.880862  1
  O  O16  1  0.401976  0.811716  0.894832  1
  O  O17  1  0.811716  0.401976  0.605168  1
  O  O18  1  0.598024  0.188284  0.105168  1
  O  O19  1  0.188284  0.598024  0.394832  1
  O  O20  1  0.696197  0.960190  0.380862  1
  O  O21  1  0.960190  0.696197  0.119138  1
