# generated using pymatgen
data_LiTi4O8
_symmetry_space_group_name_H-M   'P 1'
_cell_length_a   5.80080151
_cell_length_b   7.25030948
_cell_length_c   10.18749336
_cell_angle_alpha   78.71159803
_cell_angle_beta   88.52677527
_cell_angle_gamma   85.84285876
_symmetry_Int_Tables_number   1
_chemical_formula_structural   LiTi4O8
_chemical_formula_sum   'Li3 Ti12 O24'
_cell_volume   419.03814731
_cell_formula_units_Z   3
loop_
 _symmetry_equiv_pos_site_id
 _symmetry_equiv_pos_as_xyz
  1  'x, y, z'
loop_
 _atom_site_type_symbol
 _atom_site_label
 _atom_site_symmetry_multiplicity
 _atom_site_fract_x
 _atom_site_fract_y
 _atom_site_fract_z
 _atom_site_occupancy
  Li  Li0  1  0.993560  0.427188  0.930853  1
  Li  Li1  1  0.251251  0.572747  0.315610  1
  Li  Li2  1  0.509203  0.572338  0.573189  1
  Ti  Ti3  1  0.749373  0.002679  0.751473  1
  Ti  Ti4  1  0.001266  0.989357  0.003521  1
  Ti  Ti5  1  0.253719  0.011117  0.246572  1
  Ti  Ti6  1  0.496912  0.006245  0.496408  1
  Ti  Ti7  1  0.732510  0.311002  0.208049  1
  Ti  Ti8  1  0.972255  0.306355  0.459923  1
  Ti  Ti9  1  0.225233  0.305080  0.704164  1
  Ti  Ti10  1  0.481502  0.309401  0.951431  1
  Ti  Ti11  1  0.517792  0.688895  0.041247  1
  Ti  Ti12  1  0.773656  0.696005  0.291293  1
  Ti  Ti13  1  0.012310  0.690683  0.552284  1
  Ti  Ti14  1  0.278364  0.695987  0.794292  1
  O  O15  1  0.974019  0.138421  0.150696  1
  O  O16  1  0.472092  0.133670  0.653769  1
  O  O17  1  0.221077  0.136338  0.403914  1
  O  O18  1  0.727226  0.137077  0.902555  1
  O  O19  1  0.710201  0.190248  0.397271  1
  O  O20  1  0.960193  0.188221  0.648021  1
  O  O21  1  0.466258  0.190774  0.146536  1
  O  O22  1  0.202148  0.200613  0.899656  1
  O  O23  1  0.714065  0.457396  0.018126  1
  O  O24  1  0.970514  0.458840  0.270536  1
  O  O25  1  0.467818  0.459107  0.763540  1
  O  O26  1  0.225265  0.461060  0.515504  1
  O  O27  1  0.536268  0.543372  0.232111  1
  O  O28  1  0.785051  0.542701  0.483544  1
  O  O29  1  0.031218  0.540925  0.734872  1
  O  O30  1  0.278283  0.541466  0.978738  1
  O  O31  1  0.785210  0.809794  0.101886  1
  O  O32  1  0.046051  0.799098  0.352004  1
  O  O33  1  0.296617  0.799697  0.599814  1
  O  O34  1  0.540096  0.811099  0.853301  1
  O  O35  1  0.772604  0.864397  0.596548  1
  O  O36  1  0.523915  0.859250  0.349746  1
  O  O37  1  0.276357  0.860981  0.099722  1
  O  O38  1  0.026371  0.865981  0.845403  1
