# generated using pymatgen
data_Li8CoO5F
_symmetry_space_group_name_H-M   'P 1'
_cell_length_a   5.31814459
_cell_length_b   5.41207641
_cell_length_c   5.79890260
_cell_angle_alpha   91.66715984
_cell_angle_beta   115.18422373
_cell_angle_gamma   113.77389712
_symmetry_Int_Tables_number   1
_chemical_formula_structural   Li8CoO5F
_chemical_formula_sum   'Li8 Co1 O5 F1'
_cell_volume   134.10535854
_cell_formula_units_Z   1
loop_
 _symmetry_equiv_pos_site_id
 _symmetry_equiv_pos_as_xyz
  1  'x, y, z'
loop_
 _atom_site_type_symbol
 _atom_site_label
 _atom_site_symmetry_multiplicity
 _atom_site_fract_x
 _atom_site_fract_y
 _atom_site_fract_z
 _atom_site_occupancy
  Li  Li0  1  0.248848  0.469896  0.358196  1
  Li  Li1  1  0.131167  0.232575  0.662798  1
  Li  Li2  1  0.405635  0.889214  0.645181  1
  Li  Li3  1  0.731482  0.373458  0.022096  1
  Li  Li4  1  0.306521  0.675825  0.971359  1
  Li  Li5  1  0.571261  0.091618  0.340819  1
  Li  Li6  1  0.896600  0.795445  0.362598  1
  Li  Li7  1  0.759427  0.519302  0.656947  1
  Co  Co8  1  0.941013  0.962215  0.969590  1
  O  O9  1  0.496716  0.585852  0.763715  1
  O  O10  1  0.877589  0.108052  0.234109  1
  O  O11  1  0.159493  0.767869  0.225454  1
  O  O12  1  0.813529  0.203406  0.754744  1
  O  O13  1  0.108846  0.887994  0.755288  1
  F  F14  1  0.551874  0.437278  0.277107  1
