# generated using pymatgen
data_V3(O2F)2
_symmetry_space_group_name_H-M   'P 1'
_cell_length_a   10.46643454
_cell_length_b   10.46643454
_cell_length_c   3.06537643
_cell_angle_alpha   90.00000000
_cell_angle_beta   90.00000000
_cell_angle_gamma   143.44607391
_symmetry_Int_Tables_number   1
_chemical_formula_structural   V3(O2F)2
_chemical_formula_sum   'V6 O8 F4'
_cell_volume   199.99575999
_cell_formula_units_Z   2
loop_
 _symmetry_equiv_pos_site_id
 _symmetry_equiv_pos_as_xyz
  1  'x, y, z'
loop_
 _atom_site_type_symbol
 _atom_site_label
 _atom_site_symmetry_multiplicity
 _atom_site_fract_x
 _atom_site_fract_y
 _atom_site_fract_z
 _atom_site_occupancy
  V  V0  1  0.006670  0.993330  0.000000  1
  V  V1  1  0.165918  0.834082  0.500000  1
  V  V2  1  0.507040  0.492960  0.500000  1
  V  V3  1  0.667066  0.332934  1.000000  1
  V  V4  1  0.326346  0.673654  0.000000  1
  V  V5  1  0.827725  0.172275  0.500000  1
  O  O6  1  0.069738  0.930262  0.500000  1
  O  O7  1  0.694754  0.693922  1.000000  1
  O  O8  1  0.306078  0.305246  0.000000  1
  O  O9  1  0.619976  0.954755  0.000000  1
  O  O10  1  0.601427  0.398573  0.500000  1
  O  O11  1  0.265313  0.734687  0.500000  1
  O  O12  1  0.729895  0.270105  0.500000  1
  O  O13  1  0.045245  0.380024  0.000000  1
  F  F14  1  0.972013  0.638054  0.000000  1
  F  F15  1  0.398563  0.601437  0.500000  1
  F  F16  1  0.361946  0.027987  0.000000  1
  F  F17  1  0.933991  0.066009  0.500000  1
