# generated using pymatgen
data_Ba2ScFeAsO3
_symmetry_space_group_name_H-M   'P 1'
_cell_length_a   4.22230088
_cell_length_b   4.22230088
_cell_length_c   17.23194611
_cell_angle_alpha   90.00000000
_cell_angle_beta   90.00000000
_cell_angle_gamma   90.00000000
_symmetry_Int_Tables_number   1
_chemical_formula_structural   Ba2ScFeAsO3
_chemical_formula_sum   'Ba4 Sc2 Fe2 As2 O6'
_cell_volume   307.20811548
_cell_formula_units_Z   2
loop_
 _symmetry_equiv_pos_site_id
 _symmetry_equiv_pos_as_xyz
  1  'x, y, z'
loop_
 _atom_site_type_symbol
 _atom_site_label
 _atom_site_symmetry_multiplicity
 _atom_site_fract_x
 _atom_site_fract_y
 _atom_site_fract_z
 _atom_site_occupancy
  Ba  Ba0  1  0.500000  0.000000  0.192592  1
  Ba  Ba1  1  0.500000  0.000000  0.414660  1
  Ba  Ba2  1  0.000000  0.500000  0.585340  1
  Ba  Ba3  1  0.000000  0.500000  0.807408  1
  Sc  Sc4  1  0.000000  0.500000  0.313348  1
  Sc  Sc5  1  0.500000  0.000000  0.686652  1
  Fe  Fe6  1  0.500000  0.500000  0.000000  1
  Fe  Fe7  1  0.000000  0.000000  0.000000  1
  As  As8  1  0.000000  0.500000  0.090947  1
  As  As9  1  0.500000  0.000000  0.909053  1
  O  O10  1  0.500000  0.500000  0.293933  1
  O  O11  1  0.000000  0.000000  0.293933  1
  O  O12  1  0.000000  0.500000  0.427481  1
  O  O13  1  0.500000  0.000000  0.572519  1
  O  O14  1  0.500000  0.500000  0.706067  1
  O  O15  1  0.000000  0.000000  0.706067  1
