# generated using pymatgen
data_Fe6OF11
_symmetry_space_group_name_H-M   'P 1'
_cell_length_a   4.83779202
_cell_length_b   5.84457580
_cell_length_c   8.11251331
_cell_angle_alpha   87.61952380
_cell_angle_beta   89.51345974
_cell_angle_gamma   89.59270505
_symmetry_Int_Tables_number   1
_chemical_formula_structural   Fe6OF11
_chemical_formula_sum   'Fe6 O1 F11'
_cell_volume   229.16858546
_cell_formula_units_Z   1
loop_
 _symmetry_equiv_pos_site_id
 _symmetry_equiv_pos_as_xyz
  1  'x, y, z'
loop_
 _atom_site_type_symbol
 _atom_site_label
 _atom_site_symmetry_multiplicity
 _atom_site_fract_x
 _atom_site_fract_y
 _atom_site_fract_z
 _atom_site_occupancy
  Fe  Fe0  1  0.497270  0.170283  0.334820  1
  Fe  Fe1  1  0.511223  0.491241  0.995369  1
  Fe  Fe2  1  0.504296  0.829139  0.665883  1
  Fe  Fe3  1  0.006506  0.665154  0.329593  1
  Fe  Fe4  1  0.987528  0.332626  0.678181  1
  Fe  Fe5  1  0.983336  0.022227  0.994026  1
  O  O6  1  0.805618  0.281468  0.910104  1
  F  F7  1  0.801734  0.632400  0.564976  1
  F  F8  1  0.806245  0.973789  0.222639  1
  F  F9  1  0.711823  0.802090  0.902048  1
  F  F10  1  0.694658  0.474110  0.238766  1
  F  F11  1  0.702571  0.128567  0.563177  1
  F  F12  1  0.301704  0.864977  0.430266  1
  F  F13  1  0.300342  0.533916  0.764838  1
  F  F14  1  0.288280  0.194405  0.103368  1
  F  F15  1  0.202748  0.020857  0.775820  1
  F  F16  1  0.195879  0.365033  0.437685  1
  F  F17  1  0.198239  0.717717  0.088442  1
