# generated using pymatgen
data_UF3
_symmetry_space_group_name_H-M   'P 1'
_cell_length_a   4.37554715
_cell_length_b   4.37554715
_cell_length_c   4.37554715
_cell_angle_alpha   129.64619520
_cell_angle_beta   129.64619520
_cell_angle_gamma   73.97301662
_symmetry_Int_Tables_number   1
_chemical_formula_structural   UF3
_chemical_formula_sum   'U1 F3'
_cell_volume   48.44035549
_cell_formula_units_Z   1
loop_
 _symmetry_equiv_pos_site_id
 _symmetry_equiv_pos_as_xyz
  1  'x, y, z'
loop_
 _atom_site_type_symbol
 _atom_site_label
 _atom_site_symmetry_multiplicity
 _atom_site_fract_x
 _atom_site_fract_y
 _atom_site_fract_z
 _atom_site_occupancy
  U  U0  1  0.000000  0.000000  0.000000  1
  F  F1  1  0.250000  0.750000  0.500000  1
  F  F2  1  0.750000  0.250000  0.500000  1
  F  F3  1  0.500000  0.500000  0.000000  1
