# generated using pymatgen
data_Te4Pt3
_symmetry_space_group_name_H-M   'P 1'
_cell_length_a   12.36139834
_cell_length_b   12.36139834
_cell_length_c   12.36139834
_cell_angle_alpha   18.86668582
_cell_angle_beta   18.86668582
_cell_angle_gamma   18.86668582
_symmetry_Int_Tables_number   1
_chemical_formula_structural   Te4Pt3
_chemical_formula_sum   'Te4 Pt3'
_cell_volume   172.59621372
_cell_formula_units_Z   1
loop_
 _symmetry_equiv_pos_site_id
 _symmetry_equiv_pos_as_xyz
  1  'x, y, z'
loop_
 _atom_site_type_symbol
 _atom_site_label
 _atom_site_symmetry_multiplicity
 _atom_site_fract_x
 _atom_site_fract_y
 _atom_site_fract_z
 _atom_site_occupancy
  Te  Te0  1  0.053680  0.053680  0.053680  1
  Te  Te1  1  0.946320  0.946320  0.946320  1
  Te  Te2  1  0.795440  0.795440  0.795440  1
  Te  Te3  1  0.204560  0.204560  0.204560  1
  Pt  Pt4  1  0.500000  0.500000  0.500000  1
  Pt  Pt5  1  0.353662  0.353662  0.353662  1
  Pt  Pt6  1  0.646338  0.646338  0.646338  1
