# generated using pymatgen
data_LiFeP2H5O9
_symmetry_space_group_name_H-M   'P 1'
_cell_length_a   6.51819428
_cell_length_b   7.81374004
_cell_length_c   15.04533796
_cell_angle_alpha   90.00000000
_cell_angle_beta   90.00000000
_cell_angle_gamma   90.00000000
_symmetry_Int_Tables_number   1
_chemical_formula_structural   LiFeP2H5O9
_chemical_formula_sum   'Li4 Fe4 P8 H20 O36'
_cell_volume   766.28126305
_cell_formula_units_Z   4
loop_
 _symmetry_equiv_pos_site_id
 _symmetry_equiv_pos_as_xyz
  1  'x, y, z'
loop_
 _atom_site_type_symbol
 _atom_site_label
 _atom_site_symmetry_multiplicity
 _atom_site_fract_x
 _atom_site_fract_y
 _atom_site_fract_z
 _atom_site_occupancy
  Li  Li0  1  0.256340  0.228871  0.470755  1
  Li  Li1  1  0.756340  0.728871  0.029245  1
  Li  Li2  1  0.243660  0.228871  0.970755  1
  Li  Li3  1  0.743660  0.728871  0.529245  1
  Fe  Fe4  1  0.561713  0.754805  0.310352  1
  Fe  Fe5  1  0.061713  0.254805  0.189648  1
  Fe  Fe6  1  0.938287  0.754805  0.810352  1
  Fe  Fe7  1  0.438287  0.254805  0.689648  1
  P  P8  1  0.856468  0.436167  0.368209  1
  P  P9  1  0.869275  0.064303  0.364419  1
  P  P10  1  0.356468  0.936167  0.131791  1
  P  P11  1  0.369275  0.564303  0.135581  1
  P  P12  1  0.643532  0.436167  0.868209  1
  P  P13  1  0.630725  0.064303  0.864419  1
  P  P14  1  0.143532  0.936167  0.631791  1
  P  P15  1  0.130725  0.564303  0.635581  1
  H  H16  1  0.006507  0.492171  0.494386  1
  H  H17  1  0.215666  0.855561  0.405656  1
  H  H18  1  0.220761  0.651331  0.407183  1
  H  H19  1  0.393041  0.356683  0.281126  1
  H  H20  1  0.392687  0.149577  0.278200  1
  H  H21  1  0.893041  0.856683  0.218874  1
  H  H22  1  0.892687  0.649577  0.221800  1
  H  H23  1  0.715666  0.355561  0.094344  1
  H  H24  1  0.720761  0.151331  0.092817  1
  H  H25  1  0.506507  0.992171  0.005614  1
  H  H26  1  0.493493  0.492171  0.994386  1
  H  H27  1  0.284334  0.855561  0.905656  1
  H  H28  1  0.279239  0.651331  0.907183  1
  H  H29  1  0.106959  0.356683  0.781126  1
  H  H30  1  0.107313  0.149577  0.778200  1
  H  H31  1  0.606959  0.856683  0.718874  1
  H  H32  1  0.607313  0.649577  0.721800  1
  H  H33  1  0.784334  0.355561  0.594344  1
  H  H34  1  0.779239  0.151331  0.592817  1
  H  H35  1  0.993493  0.992171  0.505614  1
  O  O36  1  0.055922  0.445667  0.430077  1
  O  O37  1  0.062039  0.054102  0.425283  1
  O  O38  1  0.305948  0.754468  0.401713  1
  O  O39  1  0.759968  0.248360  0.387956  1
  O  O40  1  0.714283  0.928982  0.392101  1
  O  O41  1  0.701450  0.566710  0.400568  1
  O  O42  1  0.313558  0.252398  0.295859  1
  O  O43  1  0.921758  0.445386  0.271843  1
  O  O44  1  0.923798  0.065022  0.266141  1
  O  O45  1  0.421758  0.945386  0.228157  1
  O  O46  1  0.423798  0.565022  0.233859  1
  O  O47  1  0.813558  0.752398  0.204141  1
  O  O48  1  0.214283  0.428982  0.107899  1
  O  O49  1  0.201450  0.066710  0.099432  1
  O  O50  1  0.259968  0.748360  0.112044  1
  O  O51  1  0.805948  0.254468  0.098287  1
  O  O52  1  0.555922  0.945667  0.069923  1
  O  O53  1  0.562039  0.554102  0.074717  1
  O  O54  1  0.444078  0.445667  0.930077  1
  O  O55  1  0.437961  0.054102  0.925283  1
  O  O56  1  0.194052  0.754468  0.901713  1
  O  O57  1  0.740032  0.248360  0.887956  1
  O  O58  1  0.785717  0.928982  0.892101  1
  O  O59  1  0.798550  0.566710  0.900568  1
  O  O60  1  0.186442  0.252398  0.795859  1
  O  O61  1  0.578242  0.445386  0.771843  1
  O  O62  1  0.576202  0.065022  0.766141  1
  O  O63  1  0.078242  0.945386  0.728157  1
  O  O64  1  0.076202  0.565022  0.733859  1
  O  O65  1  0.686442  0.752398  0.704141  1
  O  O66  1  0.285717  0.428982  0.607899  1
  O  O67  1  0.298550  0.066710  0.599432  1
  O  O68  1  0.240032  0.748360  0.612044  1
  O  O69  1  0.694052  0.254468  0.598287  1
  O  O70  1  0.944078  0.945667  0.569923  1
  O  O71  1  0.937961  0.554102  0.574717  1
