# generated using pymatgen
data_Mn3Nb2Co3O16
_symmetry_space_group_name_H-M   'P 1'
_cell_length_a   5.75788974
_cell_length_b   5.75788974
_cell_length_c   9.32594656
_cell_angle_alpha   89.13290350
_cell_angle_beta   90.86709650
_cell_angle_gamma   119.81666156
_symmetry_Int_Tables_number   1
_chemical_formula_structural   Mn3Nb2Co3O16
_chemical_formula_sum   'Mn3 Nb2 Co3 O16'
_cell_volume   268.21507009
_cell_formula_units_Z   1
loop_
 _symmetry_equiv_pos_site_id
 _symmetry_equiv_pos_as_xyz
  1  'x, y, z'
loop_
 _atom_site_type_symbol
 _atom_site_label
 _atom_site_symmetry_multiplicity
 _atom_site_fract_x
 _atom_site_fract_y
 _atom_site_fract_z
 _atom_site_occupancy
  Mn  Mn0  1  0.170306  0.829694  0.785244  1
  Mn  Mn1  1  0.336036  0.163983  0.284352  1
  Mn  Mn2  1  0.836017  0.663964  0.284352  1
  Nb  Nb3  1  0.341821  0.658179  0.503163  1
  Nb  Nb4  1  0.675322  0.324678  0.001045  1
  Co  Co5  1  0.168104  0.333777  0.784894  1
  Co  Co6  1  0.666223  0.831896  0.784894  1
  Co  Co7  1  0.832840  0.167160  0.286760  1
  O  O8  1  0.162913  0.324646  0.400516  1
  O  O9  1  0.482250  0.517750  0.670861  1
  O  O10  1  0.340005  0.659995  0.887545  1
  O  O11  1  0.996357  0.003643  0.690785  1
  O  O12  1  0.000095  0.999905  0.186060  1
  O  O13  1  0.675354  0.837087  0.400516  1
  O  O14  1  0.035115  0.512746  0.669142  1
  O  O15  1  0.487254  0.964885  0.669142  1
  O  O16  1  0.838606  0.161394  0.897582  1
  O  O17  1  0.167168  0.832832  0.402559  1
  O  O18  1  0.517031  0.034005  0.168082  1
  O  O19  1  0.965995  0.482969  0.168082  1
  O  O20  1  0.668762  0.331238  0.391059  1
  O  O21  1  0.330351  0.161471  0.900005  1
  O  O22  1  0.517981  0.482019  0.167016  1
  O  O23  1  0.838529  0.669649  0.900005  1
