# generated using pymatgen
data_Li5Mn(Ni2O5)2
_symmetry_space_group_name_H-M   'P 1'
_cell_length_a   2.90774707
_cell_length_b   6.51884801
_cell_length_c   9.73264169
_cell_angle_alpha   101.36937943
_cell_angle_beta   88.49091056
_cell_angle_gamma   102.61078346
_symmetry_Int_Tables_number   1
_chemical_formula_structural   Li5Mn(Ni2O5)2
_chemical_formula_sum   'Li5 Mn1 Ni4 O10'
_cell_volume   176.47349162
_cell_formula_units_Z   1
loop_
 _symmetry_equiv_pos_site_id
 _symmetry_equiv_pos_as_xyz
  1  'x, y, z'
loop_
 _atom_site_type_symbol
 _atom_site_label
 _atom_site_symmetry_multiplicity
 _atom_site_fract_x
 _atom_site_fract_y
 _atom_site_fract_z
 _atom_site_occupancy
  Li  Li0  1  0.701494  0.406931  0.602727  1
  Li  Li1  1  0.500000  0.000000  0.000000  1
  Li  Li2  1  0.298506  0.593069  0.397273  1
  Li  Li3  1  0.101582  0.205094  0.806649  1
  Li  Li4  1  0.898418  0.794906  0.193351  1
  Mn  Mn5  1  0.000000  0.000000  0.500000  1
  Ni  Ni6  1  0.392697  0.795048  0.702824  1
  Ni  Ni7  1  0.607303  0.204952  0.297176  1
  Ni  Ni8  1  0.787412  0.596336  0.900469  1
  Ni  Ni9  1  0.212588  0.403664  0.099531  1
  O  O10  1  0.532729  0.089145  0.633655  1
  O  O11  1  0.359763  0.679157  0.043452  1
  O  O12  1  0.640237  0.320843  0.956548  1
  O  O13  1  0.786735  0.495892  0.239363  1
  O  O14  1  0.467271  0.910855  0.366345  1
  O  O15  1  0.863382  0.722240  0.552434  1
  O  O16  1  0.925381  0.876227  0.847801  1
  O  O17  1  0.136618  0.277760  0.447566  1
  O  O18  1  0.213265  0.504108  0.760637  1
  O  O19  1  0.074619  0.123773  0.152199  1
