# generated using pymatgen
data_Ba5Ru2O11
_symmetry_space_group_name_H-M   'P 1'
_cell_length_a   6.05832212
_cell_length_b   6.05832212
_cell_length_c   18.27009760
_cell_angle_alpha   89.76551599
_cell_angle_beta   90.23448401
_cell_angle_gamma   60.18693042
_symmetry_Int_Tables_number   1
_chemical_formula_structural   Ba5Ru2O11
_chemical_formula_sum   'Ba10 Ru4 O22'
_cell_volume   581.80403437
_cell_formula_units_Z   2
loop_
 _symmetry_equiv_pos_site_id
 _symmetry_equiv_pos_as_xyz
  1  'x, y, z'
loop_
 _atom_site_type_symbol
 _atom_site_label
 _atom_site_symmetry_multiplicity
 _atom_site_fract_x
 _atom_site_fract_y
 _atom_site_fract_z
 _atom_site_occupancy
  Ba  Ba0  1  0.659654  0.670942  0.516633  1
  Ba  Ba1  1  0.666248  0.666248  0.750000  1
  Ba  Ba2  1  0.002553  0.998673  0.639455  1
  Ba  Ba3  1  0.998673  0.002553  0.860545  1
  Ba  Ba4  1  0.001327  0.997447  0.139455  1
  Ba  Ba5  1  0.997447  0.001327  0.360545  1
  Ba  Ba6  1  0.670942  0.659654  0.983367  1
  Ba  Ba7  1  0.329058  0.340346  0.016633  1
  Ba  Ba8  1  0.340346  0.329058  0.483367  1
  Ba  Ba9  1  0.333752  0.333752  0.250000  1
  Ru  Ru10  1  0.667430  0.666462  0.173173  1
  Ru  Ru11  1  0.666462  0.667430  0.326827  1
  Ru  Ru12  1  0.333538  0.332570  0.673173  1
  Ru  Ru13  1  0.332570  0.333538  0.826827  1
  O  O14  1  0.928682  0.142722  0.000732  1
  O  O15  1  0.510790  0.511057  0.380836  1
  O  O16  1  0.511057  0.510790  0.119164  1
  O  O17  1  0.814425  0.372406  0.250516  1
  O  O18  1  0.975077  0.512682  0.384611  1
  O  O19  1  0.372406  0.814425  0.249484  1
  O  O20  1  0.142722  0.928682  0.499268  1
  O  O21  1  0.977473  0.511964  0.119299  1
  O  O22  1  0.814948  0.814948  0.250000  1
  O  O23  1  0.512682  0.975077  0.115389  1
  O  O24  1  0.511964  0.977473  0.380701  1
  O  O25  1  0.488036  0.022527  0.619299  1
  O  O26  1  0.487318  0.024923  0.884611  1
  O  O27  1  0.185052  0.185052  0.750000  1
  O  O28  1  0.627594  0.185575  0.750516  1
  O  O29  1  0.857278  0.071318  0.500732  1
  O  O30  1  0.024923  0.487318  0.615389  1
  O  O31  1  0.022527  0.488036  0.880701  1
  O  O32  1  0.185575  0.627594  0.749484  1
  O  O33  1  0.488943  0.489210  0.880836  1
  O  O34  1  0.489210  0.488943  0.619164  1
  O  O35  1  0.071318  0.857278  0.999268  1
