# generated using pymatgen
data_Mn2OF3
_symmetry_space_group_name_H-M   'P 1'
_cell_length_a   4.85058927
_cell_length_b   5.81328447
_cell_length_c   13.68611821
_cell_angle_alpha   78.50804342
_cell_angle_beta   88.76880215
_cell_angle_gamma   88.44977919
_symmetry_Int_Tables_number   1
_chemical_formula_structural   Mn2OF3
_chemical_formula_sum   'Mn10 O5 F15'
_cell_volume   377.99307736
_cell_formula_units_Z   5
loop_
 _symmetry_equiv_pos_site_id
 _symmetry_equiv_pos_as_xyz
  1  'x, y, z'
loop_
 _atom_site_type_symbol
 _atom_site_label
 _atom_site_symmetry_multiplicity
 _atom_site_fract_x
 _atom_site_fract_y
 _atom_site_fract_z
 _atom_site_occupancy
  Mn  Mn0  1  0.472610  0.498745  0.012557  1
  Mn  Mn1  1  0.502722  0.699482  0.400374  1
  Mn  Mn2  1  0.499645  0.306506  0.599178  1
  Mn  Mn3  1  0.495782  0.094132  0.200792  1
  Mn  Mn4  1  0.545774  0.912617  0.792637  1
  Mn  Mn5  1  0.994702  0.602012  0.201874  1
  Mn  Mn6  1  0.998790  0.198089  0.399989  1
  Mn  Mn7  1  0.981888  0.388036  0.802321  1
  Mn  Mn8  1  0.016248  0.799907  0.601560  1
  Mn  Mn9  1  0.987503  0.997240  0.989475  1
  O  O10  1  0.804677  0.078209  0.856703  1
  O  O11  1  0.683793  0.792168  0.262707  1
  O  O12  1  0.693582  0.005222  0.657905  1
  O  O13  1  0.302318  0.399173  0.146631  1
  O  O14  1  0.318066  0.607802  0.535957  1
  F  F15  1  0.794963  0.282937  0.260917  1
  F  F16  1  0.797221  0.491997  0.659857  1
  F  F17  1  0.804253  0.674850  0.059423  1
  F  F18  1  0.802333  0.876545  0.460918  1
  F  F19  1  0.697371  0.172541  0.063281  1
  F  F20  1  0.694825  0.376760  0.460522  1
  F  F21  1  0.689219  0.567042  0.871701  1
  F  F22  1  0.303820  0.020572  0.338697  1
  F  F23  1  0.320434  0.830734  0.930754  1
  F  F24  1  0.296035  0.232889  0.734779  1
  F  F25  1  0.206866  0.118140  0.538470  1
  F  F26  1  0.196137  0.523816  0.340739  1
  F  F27  1  0.195918  0.916781  0.131008  1
  F  F28  1  0.197012  0.321585  0.941400  1
  F  F29  1  0.205490  0.713472  0.746874  1
