# generated using pymatgen
data_Fe7(Ni3O8)2
_symmetry_space_group_name_H-M   'P 1'
_cell_length_a   6.00498786
_cell_length_b   6.00498786
_cell_length_c   10.29724764
_cell_angle_alpha   73.45706975
_cell_angle_beta   106.54293025
_cell_angle_gamma   119.50983719
_symmetry_Int_Tables_number   1
_chemical_formula_structural   Fe7(Ni3O8)2
_chemical_formula_sum   'Fe7 Ni6 O16'
_cell_volume   305.08977445
_cell_formula_units_Z   1
loop_
 _symmetry_equiv_pos_site_id
 _symmetry_equiv_pos_as_xyz
  1  'x, y, z'
loop_
 _atom_site_type_symbol
 _atom_site_label
 _atom_site_symmetry_multiplicity
 _atom_site_fract_x
 _atom_site_fract_y
 _atom_site_fract_z
 _atom_site_occupancy
  Fe  Fe0  1  0.000000  0.000000  0.500000  1
  Fe  Fe1  1  0.312615  0.687385  0.426530  1
  Fe  Fe2  1  0.251588  0.259625  0.751677  1
  Fe  Fe3  1  0.740375  0.748412  0.751677  1
  Fe  Fe4  1  0.687385  0.312615  0.573470  1
  Fe  Fe5  1  0.259625  0.251588  0.248323  1
  Fe  Fe6  1  0.748412  0.740375  0.248323  1
  Ni  Ni7  1  0.251333  0.748667  0.747654  1
  Ni  Ni8  1  0.000000  0.000000  0.000000  1
  Ni  Ni9  1  0.000000  0.500000  0.000000  1
  Ni  Ni10  1  0.500000  0.000000  0.000000  1
  Ni  Ni11  1  0.500000  0.500000  0.000000  1
  Ni  Ni12  1  0.748667  0.251333  0.252346  1
  O  O13  1  0.884303  0.115697  0.637790  1
  O  O14  1  0.122703  0.877297  0.874059  1
  O  O15  1  0.140263  0.377098  0.877804  1
  O  O16  1  0.622902  0.859737  0.877804  1
  O  O17  1  0.878701  0.638739  0.634315  1
  O  O18  1  0.361261  0.121299  0.634315  1
  O  O19  1  0.618239  0.381761  0.874536  1
  O  O20  1  0.380433  0.619567  0.631244  1
  O  O21  1  0.115697  0.884303  0.362210  1
  O  O22  1  0.877297  0.122703  0.125941  1
  O  O23  1  0.121299  0.361261  0.365685  1
  O  O24  1  0.638739  0.878701  0.365685  1
  O  O25  1  0.859737  0.622902  0.122196  1
  O  O26  1  0.377098  0.140263  0.122196  1
  O  O27  1  0.381761  0.618239  0.125464  1
  O  O28  1  0.619567  0.380433  0.368756  1
