# generated using pymatgen
data_LiFe2OF5
_symmetry_space_group_name_H-M   'P 1'
_cell_length_a   4.56313841
_cell_length_b   8.68162940
_cell_length_c   8.70071532
_cell_angle_alpha   60.17225181
_cell_angle_beta   89.75176808
_cell_angle_gamma   89.54697195
_symmetry_Int_Tables_number   1
_chemical_formula_structural   LiFe2OF5
_chemical_formula_sum   'Li3 Fe6 O3 F15'
_cell_volume   299.01161264
_cell_formula_units_Z   3
loop_
 _symmetry_equiv_pos_site_id
 _symmetry_equiv_pos_as_xyz
  1  'x, y, z'
loop_
 _atom_site_type_symbol
 _atom_site_label
 _atom_site_symmetry_multiplicity
 _atom_site_fract_x
 _atom_site_fract_y
 _atom_site_fract_z
 _atom_site_occupancy
  Li  Li0  1  0.507196  0.335678  0.331872  1
  Li  Li1  1  0.992156  0.999262  0.998886  1
  Li  Li2  1  0.485380  0.669566  0.665072  1
  Fe  Fe3  1  0.018630  0.636832  0.006647  1
  Fe  Fe4  1  0.483097  0.324158  0.005109  1
  Fe  Fe5  1  0.018608  0.986183  0.355270  1
  Fe  Fe6  1  0.482190  0.689934  0.322712  1
  Fe  Fe7  1  0.520568  0.012477  0.678394  1
  Fe  Fe8  1  0.979485  0.340755  0.645254  1
  O  O9  1  0.261772  0.439027  0.101556  1
  O  O10  1  0.736418  0.221861  0.566770  1
  O  O11  1  0.262586  0.787724  0.434537  1
  F  F12  1  0.235274  0.773408  0.106415  1
  F  F13  1  0.737120  0.570020  0.213548  1
  F  F14  1  0.256274  0.457084  0.438616  1
  F  F15  1  0.740144  0.206022  0.222833  1
  F  F16  1  0.235184  0.106474  0.116657  1
  F  F17  1  0.764375  0.893190  0.223392  1
  F  F18  1  0.257415  0.103992  0.458853  1
  F  F19  1  0.233994  0.116331  0.778289  1
  F  F20  1  0.743257  0.893468  0.562268  1
  F  F21  1  0.743496  0.564079  0.541936  1
  F  F22  1  0.266028  0.784701  0.784575  1
  F  F23  1  0.767145  0.875473  0.893723  1
  F  F24  1  0.744742  0.546974  0.889137  1
  F  F25  1  0.263462  0.431916  0.774160  1
  F  F26  1  0.764006  0.233514  0.883416  1
