# generated using pymatgen
data_KNa2Li3Zr2(Si2O5)6
_symmetry_space_group_name_H-M   'P 1'
_cell_length_a   10.46783780
_cell_length_b   10.46783780
_cell_length_c   14.26997026
_cell_angle_alpha   90.00000000
_cell_angle_beta   90.00000000
_cell_angle_gamma   120.00000000
_symmetry_Int_Tables_number   1
_chemical_formula_structural   KNa2Li3Zr2(Si2O5)6
_chemical_formula_sum   'K2 Na4 Li6 Zr4 Si24 O60'
_cell_volume   1354.15278967
_cell_formula_units_Z   2
loop_
 _symmetry_equiv_pos_site_id
 _symmetry_equiv_pos_as_xyz
  1  'x, y, z'
loop_
 _atom_site_type_symbol
 _atom_site_label
 _atom_site_symmetry_multiplicity
 _atom_site_fract_x
 _atom_site_fract_y
 _atom_site_fract_z
 _atom_site_occupancy
  K  K0  1  0.000000  0.000000  0.250000  1
  K  K1  1  0.000000  0.000000  0.750000  1
  Na  Na2  1  0.333333  0.666667  0.000000  1
  Na  Na3  1  0.333333  0.666667  0.500000  1
  Na  Na4  1  0.666667  0.333333  0.000000  1
  Na  Na5  1  0.666667  0.333333  0.500000  1
  Li  Li6  1  0.000000  0.500000  0.250000  1
  Li  Li7  1  0.000000  0.500000  0.750000  1
  Li  Li8  1  0.500000  0.500000  0.250000  1
  Li  Li9  1  0.500000  0.500000  0.750000  1
  Li  Li10  1  0.500000  0.000000  0.250000  1
  Li  Li11  1  0.500000  0.000000  0.750000  1
  Zr  Zr12  1  0.333333  0.666667  0.250000  1
  Zr  Zr13  1  0.333333  0.666667  0.750000  1
  Zr  Zr14  1  0.666667  0.333333  0.250000  1
  Zr  Zr15  1  0.666667  0.333333  0.750000  1
  Si  Si16  1  0.108110  0.761952  0.389005  1
  Si  Si17  1  0.108110  0.761952  0.610995  1
  Si  Si18  1  0.238048  0.891890  0.110995  1
  Si  Si19  1  0.238048  0.891890  0.889005  1
  Si  Si20  1  0.108110  0.346158  0.110995  1
  Si  Si21  1  0.108110  0.346158  0.889005  1
  Si  Si22  1  0.238048  0.346158  0.389005  1
  Si  Si23  1  0.238048  0.346158  0.610995  1
  Si  Si24  1  0.653842  0.891890  0.389005  1
  Si  Si25  1  0.653842  0.891890  0.610995  1
  Si  Si26  1  0.346158  0.238048  0.110995  1
  Si  Si27  1  0.346158  0.238048  0.889005  1
  Si  Si28  1  0.653842  0.761952  0.110995  1
  Si  Si29  1  0.653842  0.761952  0.889005  1
  Si  Si30  1  0.346158  0.108110  0.610995  1
  Si  Si31  1  0.346158  0.108110  0.389005  1
  Si  Si32  1  0.761952  0.653842  0.389005  1
  Si  Si33  1  0.761952  0.653842  0.610995  1
  Si  Si34  1  0.891890  0.653842  0.889005  1
  Si  Si35  1  0.891890  0.653842  0.110995  1
  Si  Si36  1  0.761952  0.108110  0.110995  1
  Si  Si37  1  0.761952  0.108110  0.889005  1
  Si  Si38  1  0.891890  0.238048  0.389005  1
  Si  Si39  1  0.891890  0.238048  0.610995  1
  O  O40  1  0.059853  0.788177  0.130614  1
  O  O41  1  0.059853  0.788177  0.869386  1
  O  O42  1  0.211823  0.940147  0.369386  1
  O  O43  1  0.211823  0.940147  0.630614  1
  O  O44  1  0.130651  0.730771  0.500000  1
  O  O45  1  0.269229  0.869349  0.000000  1
  O  O46  1  0.148955  0.661616  0.325570  1
  O  O47  1  0.148955  0.661616  0.674430  1
  O  O48  1  0.148955  0.487339  0.174430  1
  O  O49  1  0.148955  0.487339  0.825570  1
  O  O50  1  0.059853  0.271676  0.369386  1
  O  O51  1  0.059853  0.271676  0.630614  1
  O  O52  1  0.338384  0.851045  0.174430  1
  O  O53  1  0.338384  0.851045  0.825570  1
  O  O54  1  0.130651  0.399880  0.000000  1
  O  O55  1  0.269229  0.399880  0.500000  1
  O  O56  1  0.512661  0.851045  0.325570  1
  O  O57  1  0.512661  0.851045  0.674430  1
  O  O58  1  0.211823  0.271676  0.130614  1
  O  O59  1  0.211823  0.271676  0.869386  1
  O  O60  1  0.338384  0.487339  0.674430  1
  O  O61  1  0.338384  0.487339  0.325570  1
  O  O62  1  0.512661  0.661616  0.174430  1
  O  O63  1  0.512661  0.661616  0.825570  1
  O  O64  1  0.600120  0.869349  0.500000  1
  O  O65  1  0.271676  0.211823  0.369386  1
  O  O66  1  0.271676  0.211823  0.630614  1
  O  O67  1  0.600120  0.730771  0.000000  1
  O  O68  1  0.728324  0.940147  0.130614  1
  O  O69  1  0.728324  0.940147  0.869386  1
  O  O70  1  0.271676  0.059853  0.130614  1
  O  O71  1  0.271676  0.059853  0.869386  1
  O  O72  1  0.399880  0.269229  0.000000  1
  O  O73  1  0.728324  0.788177  0.369386  1
  O  O74  1  0.728324  0.788177  0.630614  1
  O  O75  1  0.399880  0.130651  0.500000  1
  O  O76  1  0.487339  0.338384  0.174430  1
  O  O77  1  0.487339  0.338384  0.825570  1
  O  O78  1  0.661616  0.512661  0.325570  1
  O  O79  1  0.661616  0.512661  0.674430  1
  O  O80  1  0.788177  0.728324  0.130614  1
  O  O81  1  0.788177  0.728324  0.869386  1
  O  O82  1  0.487339  0.148955  0.325570  1
  O  O83  1  0.487339  0.148955  0.674430  1
  O  O84  1  0.730771  0.600120  0.500000  1
  O  O85  1  0.869349  0.600120  0.000000  1
  O  O86  1  0.661616  0.148955  0.174430  1
  O  O87  1  0.661616  0.148955  0.825570  1
  O  O88  1  0.940147  0.728324  0.369386  1
  O  O89  1  0.940147  0.728324  0.630614  1
  O  O90  1  0.851045  0.512661  0.174430  1
  O  O91  1  0.851045  0.512661  0.825570  1
  O  O92  1  0.851045  0.338384  0.325570  1
  O  O93  1  0.851045  0.338384  0.674430  1
  O  O94  1  0.730771  0.130651  0.000000  1
  O  O95  1  0.869349  0.269229  0.500000  1
  O  O96  1  0.788177  0.059853  0.369386  1
  O  O97  1  0.788177  0.059853  0.630614  1
  O  O98  1  0.940147  0.211823  0.130614  1
  O  O99  1  0.940147  0.211823  0.869386  1
