# generated using pymatgen
data_LiFeO2
_symmetry_space_group_name_H-M   'P 1'
_cell_length_a   5.25793666
_cell_length_b   10.78418076
_cell_length_c   13.48682998
_cell_angle_alpha   90.00000000
_cell_angle_beta   90.00000000
_cell_angle_gamma   90.00000000
_symmetry_Int_Tables_number   1
_chemical_formula_structural   LiFeO2
_chemical_formula_sum   'Li16 Fe16 O32'
_cell_volume   764.73750786
_cell_formula_units_Z   16
loop_
 _symmetry_equiv_pos_site_id
 _symmetry_equiv_pos_as_xyz
  1  'x, y, z'
loop_
 _atom_site_type_symbol
 _atom_site_label
 _atom_site_symmetry_multiplicity
 _atom_site_fract_x
 _atom_site_fract_y
 _atom_site_fract_z
 _atom_site_occupancy
  Li  Li0  1  0.203854  0.286518  0.306506  1
  Li  Li1  1  0.203854  0.213482  0.806506  1
  Li  Li2  1  0.315583  0.958695  0.439269  1
  Li  Li3  1  0.315583  0.541305  0.939269  1
  Li  Li4  1  0.184417  0.458695  0.439269  1
  Li  Li5  1  0.184417  0.041305  0.939269  1
  Li  Li6  1  0.296146  0.786518  0.306506  1
  Li  Li7  1  0.296146  0.713482  0.806506  1
  Li  Li8  1  0.703854  0.286518  0.193494  1
  Li  Li9  1  0.703854  0.213482  0.693494  1
  Li  Li10  1  0.815583  0.958695  0.060731  1
  Li  Li11  1  0.815583  0.541305  0.560731  1
  Li  Li12  1  0.684417  0.458695  0.060731  1
  Li  Li13  1  0.684417  0.041305  0.560731  1
  Li  Li14  1  0.796146  0.786518  0.193494  1
  Li  Li15  1  0.796146  0.713482  0.693494  1
  Fe  Fe16  1  0.197967  0.291145  0.061616  1
  Fe  Fe17  1  0.197967  0.208855  0.561616  1
  Fe  Fe18  1  0.159760  0.539200  0.184930  1
  Fe  Fe19  1  0.159760  0.960800  0.684930  1
  Fe  Fe20  1  0.340240  0.039200  0.184930  1
  Fe  Fe21  1  0.340240  0.460800  0.684930  1
  Fe  Fe22  1  0.302033  0.791145  0.061616  1
  Fe  Fe23  1  0.302033  0.708855  0.561616  1
  Fe  Fe24  1  0.697967  0.291145  0.438384  1
  Fe  Fe25  1  0.697967  0.208855  0.938384  1
  Fe  Fe26  1  0.659760  0.960800  0.815070  1
  Fe  Fe27  1  0.659760  0.539200  0.315070  1
  Fe  Fe28  1  0.840240  0.039200  0.315070  1
  Fe  Fe29  1  0.840240  0.460800  0.815070  1
  Fe  Fe30  1  0.802033  0.791145  0.438384  1
  Fe  Fe31  1  0.802033  0.708855  0.938384  1
  O  O32  1  0.165584  0.783503  0.445959  1
  O  O33  1  0.165584  0.716497  0.945959  1
  O  O34  1  0.180725  0.980572  0.302900  1
  O  O35  1  0.180725  0.519428  0.802900  1
  O  O36  1  0.199946  0.960658  0.070077  1
  O  O37  1  0.199946  0.539342  0.570077  1
  O  O38  1  0.329711  0.216309  0.179698  1
  O  O39  1  0.329711  0.283691  0.679698  1
  O  O40  1  0.170289  0.783691  0.679698  1
  O  O41  1  0.170289  0.716309  0.179698  1
  O  O42  1  0.300054  0.460658  0.070077  1
  O  O43  1  0.300054  0.039342  0.570077  1
  O  O44  1  0.319275  0.019428  0.802900  1
  O  O45  1  0.319275  0.480572  0.302900  1
  O  O46  1  0.334416  0.283503  0.445959  1
  O  O47  1  0.334416  0.216497  0.945959  1
  O  O48  1  0.665584  0.783503  0.054041  1
  O  O49  1  0.665584  0.716497  0.554041  1
  O  O50  1  0.680725  0.519428  0.697100  1
  O  O51  1  0.680725  0.980572  0.197100  1
  O  O52  1  0.699946  0.539342  0.929923  1
  O  O53  1  0.699946  0.960658  0.429923  1
  O  O54  1  0.829711  0.216309  0.320302  1
  O  O55  1  0.829711  0.283691  0.820302  1
  O  O56  1  0.670289  0.716309  0.320302  1
  O  O57  1  0.670289  0.783691  0.820302  1
  O  O58  1  0.800054  0.039342  0.929923  1
  O  O59  1  0.800054  0.460658  0.429923  1
  O  O60  1  0.819275  0.019428  0.697100  1
  O  O61  1  0.819275  0.480572  0.197100  1
  O  O62  1  0.834416  0.216497  0.554041  1
  O  O63  1  0.834416  0.283503  0.054041  1
