# generated using pymatgen
data_K2CoSe2
_symmetry_space_group_name_H-M   'P 1'
_cell_length_a   8.13370608
_cell_length_b   8.13370608
_cell_length_c   8.13370608
_cell_angle_alpha   134.92734412
_cell_angle_beta   128.73360544
_cell_angle_gamma   70.61526436
_symmetry_Int_Tables_number   1
_chemical_formula_structural   K2CoSe2
_chemical_formula_sum   'K4 Co2 Se4'
_cell_volume   291.23691496
_cell_formula_units_Z   2
loop_
 _symmetry_equiv_pos_site_id
 _symmetry_equiv_pos_as_xyz
  1  'x, y, z'
loop_
 _atom_site_type_symbol
 _atom_site_label
 _atom_site_symmetry_multiplicity
 _atom_site_fract_x
 _atom_site_fract_y
 _atom_site_fract_z
 _atom_site_occupancy
  K  K0  1  0.471525  0.144157  0.327368  1
  K  K1  1  0.528475  0.855843  0.672632  1
  K  K2  1  0.183212  0.355843  0.827368  1
  K  K3  1  0.816788  0.644157  0.172632  1
  Co  Co4  1  0.000000  0.250000  0.250000  1
  Co  Co5  1  1.000000  0.750000  0.750000  1
  Se  Se6  1  0.082785  0.898495  0.184291  1
  Se  Se7  1  0.917215  0.101505  0.815709  1
  Se  Se8  1  0.285796  0.601505  0.684291  1
  Se  Se9  1  0.714204  0.398495  0.315709  1
