# generated using pymatgen
data_LiVP2(HO4)2
_symmetry_space_group_name_H-M   'P 1'
_cell_length_a   9.50690255
_cell_length_b   9.50690255
_cell_length_c   8.85238187
_cell_angle_alpha   73.08860331
_cell_angle_beta   106.91139669
_cell_angle_gamma   64.76266286
_symmetry_Int_Tables_number   1
_chemical_formula_structural   LiVP2(HO4)2
_chemical_formula_sum   'Li4 V4 P8 H8 O32'
_cell_volume   607.65438704
_cell_formula_units_Z   4
loop_
 _symmetry_equiv_pos_site_id
 _symmetry_equiv_pos_as_xyz
  1  'x, y, z'
loop_
 _atom_site_type_symbol
 _atom_site_label
 _atom_site_symmetry_multiplicity
 _atom_site_fract_x
 _atom_site_fract_y
 _atom_site_fract_z
 _atom_site_occupancy
  Li  Li0  1  0.868276  0.783626  0.645556  1
  Li  Li1  1  0.402667  0.211508  0.691075  1
  Li  Li2  1  0.216374  0.131724  0.145556  1
  Li  Li3  1  0.788492  0.597333  0.191075  1
  V  V4  1  0.363714  0.415890  0.959648  1
  V  V5  1  0.584110  0.636286  0.459648  1
  V  V6  1  0.136819  0.142584  0.492392  1
  V  V7  1  0.857416  0.863181  0.992392  1
  P  P8  1  0.157794  0.847618  0.844772  1
  P  P9  1  0.035219  0.419705  0.681394  1
  P  P10  1  0.152382  0.842206  0.344772  1
  P  P11  1  0.566466  0.816307  0.744927  1
  P  P12  1  0.580295  0.964781  0.181394  1
  P  P13  1  0.183693  0.433534  0.244927  1
  P  P14  1  0.652511  0.305087  0.815035  1
  P  P15  1  0.694913  0.347489  0.315035  1
  H  H16  1  0.490026  0.669080  0.906621  1
  H  H17  1  0.219719  0.650924  0.602939  1
  H  H18  1  0.330920  0.509974  0.406621  1
  H  H19  1  0.349076  0.780281  0.102939  1
  H  H20  1  0.912562  0.317385  0.809075  1
  H  H21  1  0.859380  0.124163  0.583840  1
  H  H22  1  0.682615  0.087438  0.309075  1
  H  H23  1  0.875837  0.140620  0.083840  1
  O  O24  1  0.003570  0.836888  0.854663  1
  O  O25  1  0.244162  0.888409  0.994124  1
  O  O26  1  0.080357  0.008016  0.663440  1
  O  O27  1  0.399948  0.001633  0.671722  1
  O  O28  1  0.306066  0.673817  0.870601  1
  O  O29  1  0.163112  0.996430  0.354663  1
  O  O30  1  0.111591  0.755838  0.494124  1
  O  O31  1  0.032426  0.295666  0.848842  1
  O  O32  1  0.991984  0.919643  0.163440  1
  O  O33  1  0.124125  0.504725  0.756048  1
  O  O34  1  0.594637  0.679928  0.925290  1
  O  O35  1  0.732588  0.821019  0.798533  1
  O  O36  1  0.550582  0.750436  0.608867  1
  O  O37  1  0.998367  0.600052  0.171722  1
  O  O38  1  0.140886  0.303992  0.613836  1
  O  O39  1  0.326183  0.693934  0.370601  1
  O  O40  1  0.463704  0.419101  0.787218  1
  O  O41  1  0.704334  0.967574  0.348842  1
  O  O42  1  0.495275  0.875875  0.256048  1
  O  O43  1  0.320072  0.405363  0.425290  1
  O  O44  1  0.799607  0.268472  0.991056  1
  O  O45  1  0.178981  0.267412  0.298533  1
  O  O46  1  0.679375  0.401950  0.665982  1
  O  O47  1  0.249564  0.449418  0.108867  1
  O  O48  1  0.696008  0.859114  0.113836  1
  O  O49  1  0.842338  0.567151  0.536098  1
  O  O50  1  0.580899  0.536296  0.287218  1
  O  O51  1  0.679861  0.128114  0.829296  1
  O  O52  1  0.731528  0.200393  0.491056  1
  O  O53  1  0.598050  0.320625  0.165982  1
  O  O54  1  0.432849  0.157662  0.036098  1
  O  O55  1  0.871886  0.320139  0.329296  1
