# generated using pymatgen
data_Li7(CoO3)2
_symmetry_space_group_name_H-M   'P 1'
_cell_length_a   5.27671636
_cell_length_b   5.59214637
_cell_length_c   5.76203905
_cell_angle_alpha   118.46543467
_cell_angle_beta   90.14947135
_cell_angle_gamma   91.51580414
_symmetry_Int_Tables_number   1
_chemical_formula_structural   Li7(CoO3)2
_chemical_formula_sum   'Li7 Co2 O6'
_cell_volume   149.39704837
_cell_formula_units_Z   1
loop_
 _symmetry_equiv_pos_site_id
 _symmetry_equiv_pos_as_xyz
  1  'x, y, z'
loop_
 _atom_site_type_symbol
 _atom_site_label
 _atom_site_symmetry_multiplicity
 _atom_site_fract_x
 _atom_site_fract_y
 _atom_site_fract_z
 _atom_site_occupancy
  Li  Li0  1  0.909320  0.500108  0.192415  1
  Li  Li1  1  0.828500  0.977220  0.828501  1
  Li  Li2  1  0.508777  0.781748  0.018365  1
  Li  Li3  1  0.428971  0.291329  0.961606  1
  Li  Li4  1  0.136106  0.037480  0.187891  1
  Li  Li5  1  0.075724  0.586726  0.816396  1
  Li  Li6  1  0.091068  0.099974  0.616116  1
  Co  Co7  1  0.361797  0.682065  0.491751  1
  Co  Co8  1  0.654239  0.290664  0.502773  1
  O  O9  1  0.767753  0.056569  0.179009  1
  O  O10  1  0.776625  0.322901  0.818968  1
  O  O11  1  0.727611  0.645749  0.526610  1
  O  O12  1  0.288204  0.326687  0.520999  1
  O  O13  1  0.240104  0.654467  0.160325  1
  O  O14  1  0.223463  0.953198  0.832925  1
