# generated using pymatgen
data_Fe2S
_symmetry_space_group_name_H-M   'P 1'
_cell_length_a   5.11390204
_cell_length_b   5.11390204
_cell_length_c   17.84476579
_cell_angle_alpha   83.42212587
_cell_angle_beta   96.57787413
_cell_angle_gamma   145.84730276
_symmetry_Int_Tables_number   1
_chemical_formula_structural   Fe2S
_chemical_formula_sum   'Fe14 S7'
_cell_volume   260.10417782
_cell_formula_units_Z   7
loop_
 _symmetry_equiv_pos_site_id
 _symmetry_equiv_pos_as_xyz
  1  'x, y, z'
loop_
 _atom_site_type_symbol
 _atom_site_label
 _atom_site_symmetry_multiplicity
 _atom_site_fract_x
 _atom_site_fract_y
 _atom_site_fract_z
 _atom_site_occupancy
  Fe  Fe0  1  0.464890  0.535110  0.851463  1
  Fe  Fe1  1  0.293157  0.706843  0.945081  1
  Fe  Fe2  1  0.042071  0.957929  0.618898  1
  Fe  Fe3  1  0.894801  0.105199  0.743191  1
  Fe  Fe4  1  0.320733  0.679267  0.588218  1
  Fe  Fe5  1  0.609080  0.390920  0.750655  1
  Fe  Fe6  1  0.735198  0.264802  0.446678  1
  Fe  Fe7  1  0.469617  0.530383  0.478054  1
  Fe  Fe8  1  0.168560  0.831440  0.305420  1
  Fe  Fe9  1  0.880130  0.119870  0.329205  1
  Fe  Fe10  1  0.587803  0.412197  0.161100  1
  Fe  Fe11  1  0.304580  0.695420  0.188016  1
  Fe  Fe12  1  0.004769  0.995231  0.012523  1
  Fe  Fe13  1  0.735494  0.264506  0.059037  1
  S  S14  1  0.626769  0.373231  0.943647  1
  S  S15  1  0.244021  0.755979  0.815126  1
  S  S16  1  0.719990  0.280010  0.651747  1
  S  S17  1  0.132552  0.867448  0.509251  1
  S  S18  1  0.545920  0.454080  0.365989  1
  S  S19  1  0.976636  0.023364  0.221157  1
  S  S20  1  0.397991  0.602009  0.075067  1
