# generated using pymatgen
data_Pr2Fe17
_symmetry_space_group_name_H-M   'P 1'
_cell_length_a   6.48556312
_cell_length_b   6.48556312
_cell_length_c   6.48556312
_cell_angle_alpha   83.02989935
_cell_angle_beta   83.02989935
_cell_angle_gamma   83.02989935
_symmetry_Int_Tables_number   1
_chemical_formula_structural   Pr2Fe17
_chemical_formula_sum   'Pr2 Fe17'
_cell_volume   267.20337172
_cell_formula_units_Z   1
loop_
 _symmetry_equiv_pos_site_id
 _symmetry_equiv_pos_as_xyz
  1  'x, y, z'
loop_
 _atom_site_type_symbol
 _atom_site_label
 _atom_site_symmetry_multiplicity
 _atom_site_fract_x
 _atom_site_fract_y
 _atom_site_fract_z
 _atom_site_occupancy
  Pr  Pr0  1  0.341029  0.341029  0.341029  1
  Pr  Pr1  1  0.658971  0.658971  0.658971  1
  Fe  Fe2  1  0.153794  0.658867  0.658867  1
  Fe  Fe3  1  0.658867  0.658867  0.153794  1
  Fe  Fe4  1  0.903887  0.903887  0.903887  1
  Fe  Fe5  1  0.096113  0.096113  0.096113  1
  Fe  Fe6  1  0.500000  1.000000  0.000000  1
  Fe  Fe7  1  0.000000  0.500000  1.000000  1
  Fe  Fe8  1  0.000000  0.000000  0.500000  1
  Fe  Fe9  1  0.000000  0.711548  0.288452  1
  Fe  Fe10  1  0.288452  0.000000  0.711548  1
  Fe  Fe11  1  0.711548  0.288452  1.000000  1
  Fe  Fe12  1  0.000000  0.288452  0.711548  1
  Fe  Fe13  1  0.711548  0.000000  0.288452  1
  Fe  Fe14  1  0.288452  0.711548  0.000000  1
  Fe  Fe15  1  0.341133  0.341133  0.846206  1
  Fe  Fe16  1  0.846206  0.341133  0.341133  1
  Fe  Fe17  1  0.341133  0.846206  0.341133  1
  Fe  Fe18  1  0.658867  0.153794  0.658867  1
