# generated using pymatgen
data_GaCu3
_symmetry_space_group_name_H-M   'P 1'
_cell_length_a   5.22173267
_cell_length_b   5.22173267
_cell_length_c   4.23146503
_cell_angle_alpha   90.00000000
_cell_angle_beta   90.00000000
_cell_angle_gamma   120.00000000
_symmetry_Int_Tables_number   1
_chemical_formula_structural   GaCu3
_chemical_formula_sum   'Ga2 Cu6'
_cell_volume   99.91959277
_cell_formula_units_Z   2
loop_
 _symmetry_equiv_pos_site_id
 _symmetry_equiv_pos_as_xyz
  1  'x, y, z'
loop_
 _atom_site_type_symbol
 _atom_site_label
 _atom_site_symmetry_multiplicity
 _atom_site_fract_x
 _atom_site_fract_y
 _atom_site_fract_z
 _atom_site_occupancy
  Ga  Ga0  1  0.333333  0.666667  0.750000  1
  Ga  Ga1  1  0.666667  0.333333  0.250000  1
  Cu  Cu2  1  0.165350  0.330700  0.250000  1
  Cu  Cu3  1  0.669300  0.834650  0.250000  1
  Cu  Cu4  1  0.165350  0.834650  0.250000  1
  Cu  Cu5  1  0.834650  0.669300  0.750000  1
  Cu  Cu6  1  0.330700  0.165350  0.750000  1
  Cu  Cu7  1  0.834650  0.165350  0.750000  1
