# generated using pymatgen
data_LiMnP(H6O5)2
_symmetry_space_group_name_H-M   'P 1'
_cell_length_a   6.17572237
_cell_length_b   6.87508858
_cell_length_c   11.01049639
_cell_angle_alpha   90.00000000
_cell_angle_beta   90.00000000
_cell_angle_gamma   90.00000000
_symmetry_Int_Tables_number   1
_chemical_formula_structural   LiMnP(H6O5)2
_chemical_formula_sum   'Li2 Mn2 P2 H24 O20'
_cell_volume   467.49068416
_cell_formula_units_Z   2
loop_
 _symmetry_equiv_pos_site_id
 _symmetry_equiv_pos_as_xyz
  1  'x, y, z'
loop_
 _atom_site_type_symbol
 _atom_site_label
 _atom_site_symmetry_multiplicity
 _atom_site_fract_x
 _atom_site_fract_y
 _atom_site_fract_z
 _atom_site_occupancy
  Li  Li0  1  0.500670  0.000000  0.935662  1
  Li  Li1  1  0.499330  0.500000  0.435662  1
  Mn  Mn2  1  0.615813  0.000000  0.643534  1
  Mn  Mn3  1  0.384187  0.500000  0.143534  1
  P  P4  1  0.993439  0.000000  0.267390  1
  P  P5  1  0.006561  0.500000  0.767390  1
  H  H6  1  0.259033  0.000000  0.471900  1
  H  H7  1  0.161710  0.000000  0.608938  1
  H  H8  1  0.012284  0.880512  0.764472  1
  H  H9  1  0.783539  0.779765  0.452466  1
  H  H10  1  0.171339  0.845964  0.071993  1
  H  H11  1  0.372992  0.816060  0.306030  1
  H  H12  1  0.624577  0.755073  0.292223  1
  H  H13  1  0.375423  0.744927  0.792223  1
  H  H14  1  0.627008  0.683940  0.806030  1
  H  H15  1  0.828661  0.654036  0.571993  1
  H  H16  1  0.216461  0.720235  0.952466  1
  H  H17  1  0.987716  0.619488  0.264472  1
  H  H18  1  0.838290  0.500000  0.108938  1
  H  H19  1  0.740967  0.500000  0.971900  1
  H  H20  1  0.987716  0.380512  0.264472  1
  H  H21  1  0.216461  0.279765  0.952466  1
  H  H22  1  0.828661  0.345964  0.571993  1
  H  H23  1  0.627008  0.316060  0.806030  1
  H  H24  1  0.375423  0.255073  0.792223  1
  H  H25  1  0.624577  0.244927  0.292223  1
  H  H26  1  0.372992  0.183940  0.306030  1
  H  H27  1  0.171339  0.154036  0.071993  1
  H  H28  1  0.783539  0.220235  0.452466  1
  H  H29  1  0.012284  0.119488  0.764472  1
  O  O30  1  0.007300  0.000000  0.127664  1
  O  O31  1  0.227939  0.000000  0.323189  1
  O  O32  1  0.954078  0.000000  0.721153  1
  O  O33  1  0.297955  0.000000  0.560437  1
  O  O34  1  0.874693  0.814785  0.314266  1
  O  O35  1  0.526805  0.801098  0.797335  1
  O  O36  1  0.712690  0.737570  0.530752  1
  O  O37  1  0.287310  0.762430  0.030752  1
  O  O38  1  0.473195  0.698902  0.297335  1
  O  O39  1  0.125307  0.685215  0.814266  1
  O  O40  1  0.992700  0.500000  0.627664  1
  O  O41  1  0.772061  0.500000  0.823189  1
  O  O42  1  0.702045  0.500000  0.060437  1
  O  O43  1  0.045922  0.500000  0.221153  1
  O  O44  1  0.125307  0.314785  0.814266  1
  O  O45  1  0.473195  0.301098  0.297335  1
  O  O46  1  0.287310  0.237570  0.030752  1
  O  O47  1  0.712690  0.262430  0.530752  1
  O  O48  1  0.526805  0.198902  0.797335  1
  O  O49  1  0.874693  0.185215  0.314266  1
