# generated using pymatgen
data_La(ZnAs)3
_symmetry_space_group_name_H-M   'P 1'
_cell_length_a   4.14864592
_cell_length_b   11.53498265
_cell_length_c   12.71351101
_cell_angle_alpha   90.00000000
_cell_angle_beta   90.00000000
_cell_angle_gamma   90.00000000
_symmetry_Int_Tables_number   1
_chemical_formula_structural   La(ZnAs)3
_chemical_formula_sum   'La4 Zn12 As12'
_cell_volume   608.39945902
_cell_formula_units_Z   4
loop_
 _symmetry_equiv_pos_site_id
 _symmetry_equiv_pos_as_xyz
  1  'x, y, z'
loop_
 _atom_site_type_symbol
 _atom_site_label
 _atom_site_symmetry_multiplicity
 _atom_site_fract_x
 _atom_site_fract_y
 _atom_site_fract_z
 _atom_site_occupancy
  La  La0  1  0.750000  0.946002  0.334758  1
  La  La1  1  0.250000  0.446002  0.165242  1
  La  La2  1  0.750000  0.553998  0.834758  1
  La  La3  1  0.250000  0.053998  0.665242  1
  Zn  Zn4  1  0.750000  0.234866  0.454195  1
  Zn  Zn5  1  0.250000  0.734866  0.045805  1
  Zn  Zn6  1  0.750000  0.265134  0.954195  1
  Zn  Zn7  1  0.250000  0.765134  0.545805  1
  Zn  Zn8  1  0.750000  0.655749  0.272297  1
  Zn  Zn9  1  0.250000  0.155749  0.227703  1
  Zn  Zn10  1  0.750000  0.844251  0.772297  1
  Zn  Zn11  1  0.250000  0.344251  0.727703  1
  Zn  Zn12  1  0.750000  0.037689  0.065463  1
  Zn  Zn13  1  0.250000  0.537689  0.434537  1
  Zn  Zn14  1  0.750000  0.462311  0.565463  1
  Zn  Zn15  1  0.250000  0.962311  0.934537  1
  As  As16  1  0.750000  0.433142  0.359966  1
  As  As17  1  0.250000  0.933142  0.140034  1
  As  As18  1  0.750000  0.066858  0.859966  1
  As  As19  1  0.250000  0.566858  0.640034  1
  As  As20  1  0.750000  0.240491  0.151977  1
  As  As21  1  0.250000  0.740491  0.348023  1
  As  As22  1  0.750000  0.259509  0.651977  1
  As  As23  1  0.250000  0.759509  0.848023  1
  As  As24  1  0.750000  0.616058  0.079139  1
  As  As25  1  0.250000  0.116058  0.420861  1
  As  As26  1  0.750000  0.883942  0.579139  1
  As  As27  1  0.250000  0.383942  0.920861  1
