# generated using pymatgen
data_Li3MnV3O8
_symmetry_space_group_name_H-M   'P 1'
_cell_length_a   6.58147642
_cell_length_b   6.58147642
_cell_length_c   6.61762853
_cell_angle_alpha   73.30436774
_cell_angle_beta   106.69563226
_cell_angle_gamma   143.90448253
_symmetry_Int_Tables_number   1
_chemical_formula_structural   Li3MnV3O8
_chemical_formula_sum   'Li3 Mn1 V3 O8'
_cell_volume   160.98057923
_cell_formula_units_Z   1
loop_
 _symmetry_equiv_pos_site_id
 _symmetry_equiv_pos_as_xyz
  1  'x, y, z'
loop_
 _atom_site_type_symbol
 _atom_site_label
 _atom_site_symmetry_multiplicity
 _atom_site_fract_x
 _atom_site_fract_y
 _atom_site_fract_z
 _atom_site_occupancy
  Li  Li0  1  0.939347  0.060653  0.634258  1
  Li  Li1  1  0.822998  0.177002  0.996271  1
  Li  Li2  1  0.062198  0.937802  0.367534  1
  Mn  Mn3  1  0.285855  0.714145  0.696594  1
  V  V4  1  0.708775  0.291225  0.305892  1
  V  V5  1  0.392208  0.607792  0.301458  1
  V  V6  1  0.604416  0.395584  0.708895  1
  O  O7  1  0.361051  0.638949  0.023739  1
  O  O8  1  0.879554  0.120446  0.312740  1
  O  O9  1  0.441184  0.558816  0.625672  1
  O  O10  1  0.761858  0.238142  0.652348  1
  O  O11  1  0.231219  0.768781  0.328247  1
  O  O12  1  0.559336  0.440664  0.371540  1
  O  O13  1  0.658431  0.341569  0.991258  1
  O  O14  1  0.105314  0.894686  0.677880  1
