# generated using pymatgen
data_SmCuP2
_symmetry_space_group_name_H-M   'P 1'
_cell_length_a   10.28788315
_cell_length_b   10.28788315
_cell_length_c   10.28788315
_cell_angle_alpha   158.85962987
_cell_angle_beta   158.85962987
_cell_angle_gamma   30.07166801
_symmetry_Int_Tables_number   1
_chemical_formula_structural   SmCuP2
_chemical_formula_sum   'Sm2 Cu2 P4'
_cell_volume   141.54556874
_cell_formula_units_Z   2
loop_
 _symmetry_equiv_pos_site_id
 _symmetry_equiv_pos_as_xyz
  1  'x, y, z'
loop_
 _atom_site_type_symbol
 _atom_site_label
 _atom_site_symmetry_multiplicity
 _atom_site_fract_x
 _atom_site_fract_y
 _atom_site_fract_z
 _atom_site_occupancy
  Sm  Sm0  1  0.883446  0.883446  0.000000  1
  Sm  Sm1  1  0.116554  0.116554  0.000000  1
  Cu  Cu2  1  0.250000  0.750000  0.500000  1
  Cu  Cu3  1  0.750000  0.250000  0.500000  1
  P  P4  1  0.675374  0.675374  0.000000  1
  P  P5  1  0.324626  0.324626  0.000000  1
  P  P6  1  0.000000  0.500000  0.500000  1
  P  P7  1  0.500000  0.000000  0.500000  1
