# generated using pymatgen
data_LiNiO2
_symmetry_space_group_name_H-M   'P 1'
_cell_length_a   4.99209716
_cell_length_b   5.81369382
_cell_length_c   6.50577970
_cell_angle_alpha   102.98356875
_cell_angle_beta   97.63717086
_cell_angle_gamma   105.76109109
_symmetry_Int_Tables_number   1
_chemical_formula_structural   LiNiO2
_chemical_formula_sum   'Li5 Ni5 O10'
_cell_volume   173.24235454
_cell_formula_units_Z   5
loop_
 _symmetry_equiv_pos_site_id
 _symmetry_equiv_pos_as_xyz
  1  'x, y, z'
loop_
 _atom_site_type_symbol
 _atom_site_label
 _atom_site_symmetry_multiplicity
 _atom_site_fract_x
 _atom_site_fract_y
 _atom_site_fract_z
 _atom_site_occupancy
  Li  Li0  1  0.000000  0.000000  0.000000  1
  Li  Li1  1  0.201540  0.399321  0.397050  1
  Li  Li2  1  0.395188  0.795317  0.797153  1
  Li  Li3  1  0.604812  0.204683  0.202847  1
  Li  Li4  1  0.798460  0.600679  0.602950  1
  Ni  Ni5  1  0.401228  0.302273  0.799527  1
  Ni  Ni6  1  0.598772  0.697727  0.200473  1
  Ni  Ni7  1  0.801425  0.101128  0.599901  1
  Ni  Ni8  1  0.000000  0.500000  0.000000  1
  Ni  Ni9  1  0.198575  0.898872  0.400099  1
  O  O10  1  0.905220  0.550768  0.276938  1
  O  O11  1  0.909764  0.038801  0.319159  1
  O  O12  1  0.094780  0.449232  0.723062  1
  O  O13  1  0.090236  0.961199  0.680841  1
  O  O14  1  0.284692  0.362622  0.089929  1
  O  O15  1  0.278018  0.824363  0.104752  1
  O  O16  1  0.512579  0.233547  0.504240  1
  O  O17  1  0.487421  0.766453  0.495760  1
  O  O18  1  0.721982  0.175637  0.895248  1
  O  O19  1  0.715308  0.637378  0.910071  1
