# generated using pymatgen
data_LiFe4(BO3)4
_symmetry_space_group_name_H-M   'P 1'
_cell_length_a   5.23758603
_cell_length_b   9.13939392
_cell_length_c   11.34319619
_cell_angle_alpha   113.52688888
_cell_angle_beta   103.30453187
_cell_angle_gamma   88.98199304
_symmetry_Int_Tables_number   1
_chemical_formula_structural   LiFe4(BO3)4
_chemical_formula_sum   'Li2 Fe8 B8 O24'
_cell_volume   482.80865728
_cell_formula_units_Z   2
loop_
 _symmetry_equiv_pos_site_id
 _symmetry_equiv_pos_as_xyz
  1  'x, y, z'
loop_
 _atom_site_type_symbol
 _atom_site_label
 _atom_site_symmetry_multiplicity
 _atom_site_fract_x
 _atom_site_fract_y
 _atom_site_fract_z
 _atom_site_occupancy
  Li  Li0  1  0.286521  0.273803  0.903942  1
  Li  Li1  1  0.764842  0.750945  0.158395  1
  Fe  Fe2  1  0.016702  0.349718  0.370896  1
  Fe  Fe3  1  0.267226  0.931618  0.881282  1
  Fe  Fe4  1  0.480038  0.151968  0.623752  1
  Fe  Fe5  1  0.251057  0.557696  0.137146  1
  Fe  Fe6  1  0.770125  0.445560  0.879500  1
  Fe  Fe7  1  0.510753  0.850797  0.379149  1
  Fe  Fe8  1  0.975866  0.647418  0.628159  1
  Fe  Fe9  1  0.747658  0.069017  0.125946  1
  B  B10  1  0.023082  0.685123  0.379685  1
  B  B11  1  0.266991  0.600376  0.873411  1
  B  B12  1  0.471960  0.816168  0.631752  1
  B  B13  1  0.233685  0.888035  0.125456  1
  B  B14  1  0.529669  0.189650  0.377934  1
  B  B15  1  0.768558  0.109416  0.876270  1
  B  B16  1  0.975720  0.316356  0.630032  1
  B  B17  1  0.730991  0.397250  0.121901  1
  O  O18  1  0.029302  0.096689  0.876157  1
  O  O19  1  0.119886  0.706522  0.830570  1
  O  O20  1  0.143064  0.496781  0.910691  1
  O  O21  1  0.141854  0.204897  0.644239  1
  O  O22  1  0.033840  0.420509  0.576512  1
  O  O23  1  0.241491  0.830971  0.677539  1
  O  O24  1  0.261112  0.676096  0.344339  1
  O  O25  1  0.529504  0.597666  0.881738  1
  O  O26  1  0.625641  0.223701  0.837731  1
  O  O27  1  0.469739  0.079793  0.429751  1
  O  O28  1  0.364813  0.303238  0.373192  1
  O  O29  1  0.631003  0.018022  0.916229  1
  O  O30  1  0.352232  0.971318  0.069974  1
  O  O31  1  0.633297  0.700472  0.634757  1
  O  O32  1  0.531671  0.926052  0.581202  1
  O  O33  1  0.398024  0.792521  0.178348  1
  O  O34  1  0.465264  0.377987  0.097167  1
  O  O35  1  0.743463  0.331543  0.674704  1
  O  O36  1  0.760682  0.175168  0.335803  1
  O  O37  1  0.961561  0.581284  0.433151  1
  O  O38  1  0.849156  0.788730  0.355663  1
  O  O39  1  0.847042  0.504550  0.082468  1
  O  O40  1  0.892210  0.308538  0.178426  1
  O  O41  1  0.977779  0.893551  0.128966  1
