# generated using pymatgen
data_Eu2SiO5
_symmetry_space_group_name_H-M   'P 1'
_cell_length_a   8.17651725
_cell_length_b   8.17651725
_cell_length_c   10.77885086
_cell_angle_alpha   61.24086429
_cell_angle_beta   118.75913571
_cell_angle_gamma   129.54941439
_symmetry_Int_Tables_number   1
_chemical_formula_structural   Eu2SiO5
_chemical_formula_sum   'Eu8 Si4 O20'
_cell_volume   470.55257515
_cell_formula_units_Z   4
loop_
 _symmetry_equiv_pos_site_id
 _symmetry_equiv_pos_as_xyz
  1  'x, y, z'
loop_
 _atom_site_type_symbol
 _atom_site_label
 _atom_site_symmetry_multiplicity
 _atom_site_fract_x
 _atom_site_fract_y
 _atom_site_fract_z
 _atom_site_occupancy
  Eu  Eu0  1  0.761121  0.471778  0.836176  1
  Eu  Eu1  1  0.213819  0.291415  0.533067  1
  Eu  Eu2  1  0.291415  0.213819  0.966933  1
  Eu  Eu3  1  0.528222  0.238879  0.336176  1
  Eu  Eu4  1  0.471778  0.761121  0.663824  1
  Eu  Eu5  1  0.708585  0.786181  0.033067  1
  Eu  Eu6  1  0.786181  0.708585  0.466933  1
  Eu  Eu7  1  0.238879  0.528222  0.163824  1
  Si  Si8  1  0.907267  0.268174  0.694012  1
  Si  Si9  1  0.731826  0.092733  0.194012  1
  Si  Si10  1  0.268174  0.907267  0.805988  1
  Si  Si11  1  0.092733  0.731826  0.305988  1
  O  O12  1  0.732487  0.131530  0.567262  1
  O  O13  1  0.910528  0.094767  0.856919  1
  O  O14  1  0.848371  0.437041  0.675986  1
  O  O15  1  0.868470  0.267513  0.067262  1
  O  O16  1  0.905233  0.089472  0.356919  1
  O  O17  1  0.400754  0.159916  0.820390  1
  O  O18  1  0.562959  0.151629  0.175986  1
  O  O19  1  0.576110  0.608756  0.605579  1
  O  O20  1  0.608756  0.576110  0.894421  1
  O  O21  1  0.159916  0.400754  0.679610  1
  O  O22  1  0.840084  0.599246  0.320390  1
  O  O23  1  0.391244  0.423890  0.105579  1
  O  O24  1  0.423890  0.391244  0.394421  1
  O  O25  1  0.437041  0.848371  0.824014  1
  O  O26  1  0.599246  0.840084  0.179610  1
  O  O27  1  0.094767  0.910528  0.643081  1
  O  O28  1  0.131530  0.732487  0.932738  1
  O  O29  1  0.151629  0.562959  0.324014  1
  O  O30  1  0.089472  0.905233  0.143081  1
  O  O31  1  0.267513  0.868470  0.432738  1
