# generated using pymatgen
data_Mn6O7F5
_symmetry_space_group_name_H-M   'P 1'
_cell_length_a   4.68352251
_cell_length_b   5.62318625
_cell_length_c   7.72185167
_cell_angle_alpha   86.25908951
_cell_angle_beta   89.79728407
_cell_angle_gamma   88.52467027
_symmetry_Int_Tables_number   1
_chemical_formula_structural   Mn6O7F5
_chemical_formula_sum   'Mn6 O7 F5'
_cell_volume   202.86421593
_cell_formula_units_Z   1
loop_
 _symmetry_equiv_pos_site_id
 _symmetry_equiv_pos_as_xyz
  1  'x, y, z'
loop_
 _atom_site_type_symbol
 _atom_site_label
 _atom_site_symmetry_multiplicity
 _atom_site_fract_x
 _atom_site_fract_y
 _atom_site_fract_z
 _atom_site_occupancy
  Mn  Mn0  1  0.495747  0.496230  0.999461  1
  Mn  Mn1  1  0.486706  0.841830  0.664919  1
  Mn  Mn2  1  0.531335  0.166793  0.343583  1
  Mn  Mn3  1  0.022794  0.320905  0.661545  1
  Mn  Mn4  1  0.953196  0.663336  0.327814  1
  Mn  Mn5  1  0.008746  0.002784  0.004026  1
  O  O6  1  0.804694  0.363256  0.439242  1
  O  O7  1  0.806606  0.705473  0.104122  1
  O  O8  1  0.691323  0.205094  0.111112  1
  O  O9  1  0.694274  0.876442  0.439262  1
  O  O10  1  0.316858  0.130960  0.561500  1
  O  O11  1  0.302945  0.790790  0.890695  1
  O  O12  1  0.190455  0.294882  0.894329  1
  F  F13  1  0.800896  0.035330  0.768043  1
  F  F14  1  0.704156  0.540825  0.749908  1
  F  F15  1  0.296413  0.459995  0.248760  1
  F  F16  1  0.180032  0.641184  0.546434  1
  F  F17  1  0.212823  0.963891  0.245245  1
