# generated using pymatgen
data_B6H10C2SBr
_symmetry_space_group_name_H-M   'P 1'
_cell_length_a   9.74828562
_cell_length_b   9.89191942
_cell_length_c   19.35530266
_cell_angle_alpha   90.00000000
_cell_angle_beta   90.00000000
_cell_angle_gamma   90.00000000
_symmetry_Int_Tables_number   1
_chemical_formula_structural   B6H10C2SBr
_chemical_formula_sum   'B48 H80 C16 S8 Br8'
_cell_volume   1866.41743199
_cell_formula_units_Z   8
loop_
 _symmetry_equiv_pos_site_id
 _symmetry_equiv_pos_as_xyz
  1  'x, y, z'
loop_
 _atom_site_type_symbol
 _atom_site_label
 _atom_site_symmetry_multiplicity
 _atom_site_fract_x
 _atom_site_fract_y
 _atom_site_fract_z
 _atom_site_occupancy
  B  B0  1  0.012364  0.388529  0.360231  1
  B  B1  1  0.016572  0.572454  0.477346  1
  B  B2  1  0.020128  0.900473  0.049156  1
  B  B3  1  0.057559  0.038830  0.104087  1
  B  B4  1  0.068771  0.551514  0.330606  1
  B  B5  1  0.072120  0.664324  0.403209  1
  B  B6  1  0.135479  0.326800  0.420239  1
  B  B7  1  0.136982  0.441120  0.490872  1
  B  B8  1  0.189481  0.420201  0.346960  1
  B  B9  1  0.194848  0.601898  0.463398  1
  B  B10  1  0.225842  0.589319  0.373398  1
  B  B11  1  0.231614  0.549354  0.928258  1
  B  B12  1  0.268386  0.450646  0.428258  1
  B  B13  1  0.274158  0.410681  0.873398  1
  B  B14  1  0.305152  0.398102  0.963398  1
  B  B15  1  0.310519  0.579799  0.846960  1
  B  B16  1  0.363018  0.558880  0.990872  1
  B  B17  1  0.364521  0.673200  0.920239  1
  B  B18  1  0.427880  0.335676  0.903209  1
  B  B19  1  0.431229  0.448486  0.830606  1
  B  B20  1  0.442441  0.961170  0.604087  1
  B  B21  1  0.479872  0.099527  0.549156  1
  B  B22  1  0.483428  0.427546  0.977346  1
  B  B23  1  0.487636  0.611471  0.860231  1
  B  B24  1  0.512364  0.111471  0.639769  1
  B  B25  1  0.516572  0.927546  0.522654  1
  B  B26  1  0.520128  0.599527  0.950844  1
  B  B27  1  0.557559  0.461170  0.895913  1
  B  B28  1  0.568771  0.948486  0.669394  1
  B  B29  1  0.572120  0.835676  0.596791  1
  B  B30  1  0.635479  0.173200  0.579761  1
  B  B31  1  0.636982  0.058880  0.509128  1
  B  B32  1  0.689481  0.079799  0.653040  1
  B  B33  1  0.694848  0.898102  0.536602  1
  B  B34  1  0.725842  0.910681  0.626602  1
  B  B35  1  0.731614  0.950646  0.071742  1
  B  B36  1  0.768386  0.049354  0.571742  1
  B  B37  1  0.774158  0.089319  0.126602  1
  B  B38  1  0.805152  0.101898  0.036602  1
  B  B39  1  0.810519  0.920201  0.153040  1
  B  B40  1  0.863018  0.941120  0.009128  1
  B  B41  1  0.864521  0.826800  0.079761  1
  B  B42  1  0.927880  0.164324  0.096791  1
  B  B43  1  0.931229  0.051514  0.169394  1
  B  B44  1  0.942441  0.538830  0.395913  1
  B  B45  1  0.979872  0.400473  0.450844  1
  B  B46  1  0.983428  0.072454  0.022654  1
  B  B47  1  0.987636  0.888529  0.139769  1
  H  H48  1  0.030930  0.540854  0.627994  1
  H  H49  1  0.043843  0.127913  0.977021  1
  H  H50  1  0.050129  0.813195  0.176345  1
  H  H51  1  0.055775  0.880288  0.879782  1
  H  H52  1  0.045632  0.591027  0.273425  1
  H  H53  1  0.048911  0.782546  0.396970  1
  H  H54  1  0.066156  0.405835  0.688560  1
  H  H55  1  0.052190  0.938057  0.560588  1
  H  H56  1  0.084836  0.990802  0.694128  1
  H  H57  1  0.089732  0.574694  0.082788  1
  H  H58  1  0.106240  0.833818  0.021127  1
  H  H59  1  0.116000  0.583021  0.939253  1
  H  H60  1  0.160173  0.208817  0.426831  1
  H  H61  1  0.165976  0.567636  0.167121  1
  H  H62  1  0.181867  0.061776  0.538624  1
  H  H63  1  0.190726  0.892236  0.504354  1
  H  H64  1  0.196808  0.432799  0.106314  1
  H  H65  1  0.215880  0.114881  0.674714  1
  H  H66  1  0.248412  0.983231  0.736840  1
  H  H67  1  0.239881  0.324913  0.999903  1
  H  H68  1  0.260119  0.675087  0.499903  1
  H  H69  1  0.251588  0.016769  0.236840  1
  H  H70  1  0.284120  0.885119  0.174714  1
  H  H71  1  0.303192  0.567201  0.606314  1
  H  H72  1  0.309274  0.107764  0.004354  1
  H  H73  1  0.318133  0.938224  0.038624  1
  H  H74  1  0.334024  0.432364  0.667121  1
  H  H75  1  0.339827  0.791183  0.926831  1
  H  H76  1  0.384000  0.416979  0.439253  1
  H  H77  1  0.393760  0.166182  0.521127  1
  H  H78  1  0.410268  0.425306  0.582788  1
  H  H79  1  0.415164  0.009198  0.194128  1
  H  H80  1  0.447810  0.061943  0.060588  1
  H  H81  1  0.433844  0.594165  0.188560  1
  H  H82  1  0.451089  0.217454  0.896970  1
  H  H83  1  0.454368  0.408973  0.773425  1
  H  H84  1  0.444225  0.119712  0.379782  1
  H  H85  1  0.449871  0.186805  0.676345  1
  H  H86  1  0.456157  0.872087  0.477021  1
  H  H87  1  0.469070  0.459146  0.127994  1
  H  H88  1  0.530930  0.959146  0.372006  1
  H  H89  1  0.543843  0.372087  0.022979  1
  H  H90  1  0.550129  0.686805  0.823655  1
  H  H91  1  0.555775  0.619712  0.120218  1
  H  H92  1  0.545632  0.908973  0.726575  1
  H  H93  1  0.548911  0.717454  0.603030  1
  H  H94  1  0.566156  0.094165  0.311440  1
  H  H95  1  0.552190  0.561943  0.439412  1
  H  H96  1  0.584836  0.509198  0.305872  1
  H  H97  1  0.589732  0.925306  0.917212  1
  H  H98  1  0.606240  0.666182  0.978873  1
  H  H99  1  0.616000  0.916979  0.060747  1
  H  H100  1  0.660173  0.291183  0.573169  1
  H  H101  1  0.665976  0.932364  0.832879  1
  H  H102  1  0.681867  0.438224  0.461376  1
  H  H103  1  0.690726  0.607764  0.495646  1
  H  H104  1  0.696808  0.067201  0.893686  1
  H  H105  1  0.715880  0.385119  0.325286  1
  H  H106  1  0.748412  0.516769  0.263160  1
  H  H107  1  0.739881  0.175087  0.000097  1
  H  H108  1  0.760119  0.824913  0.500097  1
  H  H109  1  0.751588  0.483231  0.763160  1
  H  H110  1  0.784120  0.614881  0.825286  1
  H  H111  1  0.803192  0.932799  0.393686  1
  H  H112  1  0.809274  0.392236  0.995646  1
  H  H113  1  0.818133  0.561776  0.961376  1
  H  H114  1  0.834024  0.067636  0.332879  1
  H  H115  1  0.839827  0.708817  0.073169  1
  H  H116  1  0.884000  0.083021  0.560747  1
  H  H117  1  0.893760  0.333818  0.478873  1
  H  H118  1  0.910268  0.074694  0.417212  1
  H  H119  1  0.915164  0.490802  0.805872  1
  H  H120  1  0.947810  0.438057  0.939412  1
  H  H121  1  0.933844  0.905835  0.811440  1
  H  H122  1  0.951089  0.282546  0.103030  1
  H  H123  1  0.954368  0.091027  0.226575  1
  H  H124  1  0.944225  0.380288  0.620218  1
  H  H125  1  0.949871  0.313195  0.323655  1
  H  H126  1  0.956157  0.627913  0.522979  1
  H  H127  1  0.969070  0.040854  0.872006  1
  C  C128  1  0.039599  0.431534  0.634936  1
  C  C129  1  0.160832  0.955083  0.548566  1
  C  C130  1  0.179360  0.541220  0.112407  1
  C  C131  1  0.195335  0.009948  0.688749  1
  C  C132  1  0.304665  0.990052  0.188749  1
  C  C133  1  0.320640  0.458780  0.612407  1
  C  C134  1  0.339168  0.044917  0.048566  1
  C  C135  1  0.460401  0.568466  0.134936  1
  C  C136  1  0.539599  0.068466  0.365064  1
  C  C137  1  0.660832  0.544917  0.451434  1
  C  C138  1  0.679360  0.958780  0.887593  1
  C  C139  1  0.695335  0.490052  0.311251  1
  C  C140  1  0.804665  0.509948  0.811251  1
  C  C141  1  0.820640  0.041220  0.387593  1
  C  C142  1  0.839168  0.455083  0.951434  1
  C  C143  1  0.960401  0.931534  0.865064  1
  S  S144  1  0.174169  0.366724  0.580316  1
  S  S145  1  0.240538  0.101037  0.122055  1
  S  S146  1  0.259462  0.898963  0.622055  1
  S  S147  1  0.325831  0.633276  0.080316  1
  S  S148  1  0.674169  0.133276  0.419684  1
  S  S149  1  0.740538  0.398963  0.877945  1
  S  S150  1  0.759462  0.601037  0.377945  1
  S  S151  1  0.825831  0.866724  0.919684  1
  Br  Br152  1  0.132599  0.296914  0.826502  1
  Br  Br153  1  0.204934  0.668689  0.771596  1
  Br  Br154  1  0.295066  0.331311  0.271596  1
  Br  Br155  1  0.367401  0.703086  0.326502  1
  Br  Br156  1  0.632599  0.203086  0.173498  1
  Br  Br157  1  0.704934  0.831311  0.228404  1
  Br  Br158  1  0.795066  0.168689  0.728404  1
  Br  Br159  1  0.867401  0.796914  0.673498  1
