# generated using pymatgen
data_Mn6O7F5
_symmetry_space_group_name_H-M   'P 1'
_cell_length_a   4.62448347
_cell_length_b   5.66810261
_cell_length_c   15.31725004
_cell_angle_alpha   89.91490674
_cell_angle_beta   89.31829766
_cell_angle_gamma   89.50288502
_symmetry_Int_Tables_number   1
_chemical_formula_structural   Mn6O7F5
_chemical_formula_sum   'Mn12 O14 F10'
_cell_volume   401.45256350
_cell_formula_units_Z   2
loop_
 _symmetry_equiv_pos_site_id
 _symmetry_equiv_pos_as_xyz
  1  'x, y, z'
loop_
 _atom_site_type_symbol
 _atom_site_label
 _atom_site_symmetry_multiplicity
 _atom_site_fract_x
 _atom_site_fract_y
 _atom_site_fract_z
 _atom_site_occupancy
  Mn  Mn0  1  0.016512  0.166599  0.411994  1
  Mn  Mn1  1  0.999406  0.846425  0.242854  1
  Mn  Mn2  1  0.020689  0.160502  0.078998  1
  Mn  Mn3  1  0.020626  0.163949  0.745251  1
  Mn  Mn4  1  0.042045  0.850071  0.581252  1
  Mn  Mn5  1  0.026127  0.853501  0.911405  1
  Mn  Mn6  1  0.491244  0.351611  0.588910  1
  Mn  Mn7  1  0.493455  0.340498  0.921935  1
  Mn  Mn8  1  0.492814  0.344750  0.253666  1
  Mn  Mn9  1  0.503067  0.634358  0.093742  1
  Mn  Mn10  1  0.490790  0.639580  0.420664  1
  Mn  Mn11  1  0.483747  0.633383  0.749905  1
  O  O12  1  0.211694  0.106287  0.301161  1
  O  O13  1  0.227211  0.112829  0.636723  1
  O  O14  1  0.219083  0.113746  0.969503  1
  O  O15  1  0.229410  0.885158  0.135433  1
  O  O16  1  0.230065  0.892459  0.470167  1
  O  O17  1  0.234887  0.887522  0.801212  1
  O  O18  1  0.280235  0.393523  0.145182  1
  O  O19  1  0.283582  0.400083  0.482604  1
  O  O20  1  0.280919  0.609100  0.643310  1
  O  O21  1  0.276701  0.400844  0.814031  1
  O  O22  1  0.726974  0.384046  0.027566  1
  O  O23  1  0.719203  0.616802  0.196400  1
  O  O24  1  0.716036  0.380151  0.361010  1
  O  O25  1  0.720550  0.382087  0.694722  1
  F  F26  1  0.234040  0.607768  0.311328  1
  F  F27  1  0.269146  0.617699  0.984559  1
  F  F28  1  0.760740  0.621170  0.533045  1
  F  F29  1  0.731385  0.625396  0.861921  1
  F  F30  1  0.765802  0.119186  0.182758  1
  F  F31  1  0.765189  0.125164  0.525918  1
  F  F32  1  0.746438  0.871692  0.356418  1
  F  F33  1  0.756332  0.867953  0.022305  1
  F  F34  1  0.769492  0.124927  0.852188  1
  F  F35  1  0.764361  0.869180  0.689960  1
