# generated using pymatgen
data_Ca3SnS5
_symmetry_space_group_name_H-M   'P 1'
_cell_length_a   8.96043191
_cell_length_b   8.96043191
_cell_length_c   8.96043191
_cell_angle_alpha   129.08051077
_cell_angle_beta   129.08051077
_cell_angle_gamma   74.88106300
_symmetry_Int_Tables_number   1
_chemical_formula_structural   Ca3SnS5
_chemical_formula_sum   'Ca6 Sn2 S10'
_cell_volume   422.22806088
_cell_formula_units_Z   2
loop_
 _symmetry_equiv_pos_site_id
 _symmetry_equiv_pos_as_xyz
  1  'x, y, z'
loop_
 _atom_site_type_symbol
 _atom_site_label
 _atom_site_symmetry_multiplicity
 _atom_site_fract_x
 _atom_site_fract_y
 _atom_site_fract_z
 _atom_site_occupancy
  Ca  Ca0  1  0.750000  0.750000  0.000000  1
  Ca  Ca1  1  0.250000  0.250000  0.000000  1
  Ca  Ca2  1  0.162764  0.337236  0.500000  1
  Ca  Ca3  1  0.837236  0.662764  0.500000  1
  Ca  Ca4  1  0.662764  0.162764  0.825528  1
  Ca  Ca5  1  0.337236  0.837236  0.174472  1
  Sn  Sn6  1  0.750000  0.250000  0.500000  1
  Sn  Sn7  1  0.250000  0.750000  0.500000  1
  S  S8  1  0.500000  0.500000  0.000000  1
  S  S9  1  0.000000  0.000000  0.000000  1
  S  S10  1  0.477960  0.306770  0.500000  1
  S  S11  1  0.806770  0.977960  0.500000  1
  S  S12  1  0.977960  0.477960  0.171190  1
  S  S13  1  0.306770  0.806770  0.828810  1
  S  S14  1  0.522040  0.693230  0.500000  1
  S  S15  1  0.193230  0.022040  0.500000  1
  S  S16  1  0.022040  0.522040  0.828810  1
  S  S17  1  0.693230  0.193230  0.171190  1
