# generated using pymatgen
data_Rb2PtSe2
_symmetry_space_group_name_H-M   'P 1'
_cell_length_a   6.72404045
_cell_length_b   6.72404045
_cell_length_c   6.72404045
_cell_angle_alpha   146.73218893
_cell_angle_beta   110.23436532
_cell_angle_gamma   79.51508146
_symmetry_Int_Tables_number   1
_chemical_formula_structural   Rb2PtSe2
_chemical_formula_sum   'Rb2 Pt1 Se2'
_cell_volume   153.04323298
_cell_formula_units_Z   1
loop_
 _symmetry_equiv_pos_site_id
 _symmetry_equiv_pos_as_xyz
  1  'x, y, z'
loop_
 _atom_site_type_symbol
 _atom_site_label
 _atom_site_symmetry_multiplicity
 _atom_site_fract_x
 _atom_site_fract_y
 _atom_site_fract_z
 _atom_site_occupancy
  Rb  Rb0  1  0.697967  0.197967  0.500000  1
  Rb  Rb1  1  0.302033  0.802033  0.500000  1
  Pt  Pt2  1  0.000000  0.000000  0.000000  1
  Se  Se3  1  0.788803  0.500000  0.288803  1
  Se  Se4  1  0.211197  0.500000  0.711197  1
