# generated using pymatgen
data_Ac2CuIr
_symmetry_space_group_name_H-M   'P 1'
_cell_length_a   5.29449015
_cell_length_b   5.29449015
_cell_length_c   5.29449015
_cell_angle_alpha   60.00000000
_cell_angle_beta   60.00000000
_cell_angle_gamma   60.00000000
_symmetry_Int_Tables_number   1
_chemical_formula_structural   Ac2CuIr
_chemical_formula_sum   'Ac2 Cu1 Ir1'
_cell_volume   104.94395731
_cell_formula_units_Z   1
loop_
 _symmetry_equiv_pos_site_id
 _symmetry_equiv_pos_as_xyz
  1  'x, y, z'
loop_
 _atom_site_type_symbol
 _atom_site_label
 _atom_site_symmetry_multiplicity
 _atom_site_fract_x
 _atom_site_fract_y
 _atom_site_fract_z
 _atom_site_occupancy
  Ac  Ac0  1  0.250000  0.250000  0.250000  1
  Ac  Ac1  1  0.750000  0.750000  0.750000  1
  Cu  Cu2  1  0.500000  0.500000  0.500000  1
  Ir  Ir3  1  0.000000  0.000000  0.000000  1
