# generated using pymatgen
data_K2RhF6
_symmetry_space_group_name_H-M   'P 1'
_cell_length_a   5.84689733
_cell_length_b   5.84689733
_cell_length_c   4.76099771
_cell_angle_alpha   90.00000000
_cell_angle_beta   90.00000000
_cell_angle_gamma   120.00000000
_symmetry_Int_Tables_number   1
_chemical_formula_structural   K2RhF6
_chemical_formula_sum   'K2 Rh1 F6'
_cell_volume   140.95469288
_cell_formula_units_Z   1
loop_
 _symmetry_equiv_pos_site_id
 _symmetry_equiv_pos_as_xyz
  1  'x, y, z'
loop_
 _atom_site_type_symbol
 _atom_site_label
 _atom_site_symmetry_multiplicity
 _atom_site_fract_x
 _atom_site_fract_y
 _atom_site_fract_z
 _atom_site_occupancy
  K  K0  1  0.333333  0.666667  0.711662  1
  K  K1  1  0.666667  0.333333  0.288338  1
  Rh  Rh2  1  0.000000  0.000000  0.000000  1
  F  F3  1  0.839010  0.160990  0.773465  1
  F  F4  1  0.839010  0.678021  0.773465  1
  F  F5  1  0.321979  0.160990  0.773465  1
  F  F6  1  0.160990  0.839010  0.226535  1
  F  F7  1  0.160990  0.321979  0.226535  1
  F  F8  1  0.678021  0.839010  0.226535  1
