# generated using pymatgen
data_Mg2Cu
_symmetry_space_group_name_H-M   'P 1'
_cell_length_a   5.28937096
_cell_length_b   5.28937096
_cell_length_c   5.28937096
_cell_angle_alpha   120.61708138
_cell_angle_beta   107.09904735
_cell_angle_gamma   101.34273888
_symmetry_Int_Tables_number   1
_chemical_formula_structural   Mg2Cu
_chemical_formula_sum   'Mg4 Cu2'
_cell_volume   110.40170358
_cell_formula_units_Z   2
loop_
 _symmetry_equiv_pos_site_id
 _symmetry_equiv_pos_as_xyz
  1  'x, y, z'
loop_
 _atom_site_type_symbol
 _atom_site_label
 _atom_site_symmetry_multiplicity
 _atom_site_fract_x
 _atom_site_fract_y
 _atom_site_fract_z
 _atom_site_occupancy
  Mg  Mg0  1  0.510972  0.672246  0.838726  1
  Mg  Mg1  1  0.489028  0.327754  0.161274  1
  Mg  Mg2  1  0.833520  0.172246  0.661274  1
  Mg  Mg3  1  0.166480  0.827754  0.338726  1
  Cu  Cu4  1  0.000000  0.750000  0.750000  1
  Cu  Cu5  1  0.000000  0.250000  0.250000  1
