# generated using pymatgen
data_Eu(PRh)2
_symmetry_space_group_name_H-M   'P 1'
_cell_length_a   5.74993020
_cell_length_b   5.74993020
_cell_length_c   5.74993020
_cell_angle_alpha   138.77932931
_cell_angle_beta   138.77932931
_cell_angle_gamma   59.71149152
_symmetry_Int_Tables_number   1
_chemical_formula_structural   Eu(PRh)2
_chemical_formula_sum   'Eu1 P2 Rh2'
_cell_volume   81.71824315
_cell_formula_units_Z   1
loop_
 _symmetry_equiv_pos_site_id
 _symmetry_equiv_pos_as_xyz
  1  'x, y, z'
loop_
 _atom_site_type_symbol
 _atom_site_label
 _atom_site_symmetry_multiplicity
 _atom_site_fract_x
 _atom_site_fract_y
 _atom_site_fract_z
 _atom_site_occupancy
  Eu  Eu0  1  0.000000  0.000000  0.000000  1
  P  P1  1  0.615435  0.615435  0.000000  1
  P  P2  1  0.384565  0.384565  0.000000  1
  Rh  Rh3  1  0.750000  0.250000  0.500000  1
  Rh  Rh4  1  0.250000  0.750000  0.500000  1
