# generated using pymatgen
data_Li2Mn3(BO3)3
_symmetry_space_group_name_H-M   'P 1'
_cell_length_a   5.29067278
_cell_length_b   6.19039916
_cell_length_c   11.78718456
_cell_angle_alpha   84.53090800
_cell_angle_beta   78.93544036
_cell_angle_gamma   87.36212614
_symmetry_Int_Tables_number   1
_chemical_formula_structural   Li2Mn3(BO3)3
_chemical_formula_sum   'Li4 Mn6 B6 O18'
_cell_volume   376.99382227
_cell_formula_units_Z   2
loop_
 _symmetry_equiv_pos_site_id
 _symmetry_equiv_pos_as_xyz
  1  'x, y, z'
loop_
 _atom_site_type_symbol
 _atom_site_label
 _atom_site_symmetry_multiplicity
 _atom_site_fract_x
 _atom_site_fract_y
 _atom_site_fract_z
 _atom_site_occupancy
  Li  Li0  1  0.839467  0.140560  0.457966  1
  Li  Li1  1  0.186585  0.459677  0.802378  1
  Li  Li2  1  0.155555  0.855385  0.540083  1
  Li  Li3  1  0.522453  0.788331  0.132074  1
  Mn  Mn4  1  0.023729  0.028133  0.788540  1
  Mn  Mn5  1  0.649286  0.624684  0.878771  1
  Mn  Mn6  1  0.302704  0.303130  0.550541  1
  Mn  Mn7  1  0.691543  0.689887  0.446596  1
  Mn  Mn8  1  0.349677  0.364033  0.120115  1
  Mn  Mn9  1  0.980855  0.963828  0.210820  1
  B  B10  1  0.744981  0.408077  0.663854  1
  B  B11  1  0.076576  0.740968  0.998147  1
  B  B12  1  0.407878  0.072007  0.329755  1
  B  B13  1  0.589280  0.908686  0.669133  1
  B  B14  1  0.920339  0.264665  0.004471  1
  B  B15  1  0.255539  0.613371  0.335124  1
  O  O16  1  0.683745  0.366994  0.990371  1
  O  O17  1  0.101001  0.208906  0.914044  1
  O  O18  1  0.990813  0.356678  0.686230  1
  O  O19  1  0.551045  0.481155  0.748212  1
  O  O20  1  0.692133  0.380675  0.553586  1
  O  O21  1  0.012159  0.708359  0.890686  1
  O  O22  1  0.660966  0.028245  0.343131  1
  O  O23  1  0.654809  0.900301  0.780225  1
  O  O24  1  0.216570  0.123616  0.420677  1
  O  O25  1  0.781817  0.874824  0.574798  1
  O  O26  1  0.346751  0.045303  0.220486  1
  O  O27  1  0.340010  0.968220  0.654158  1
  O  O28  1  0.972064  0.240763  0.118671  1
  O  O29  1  0.303053  0.616679  0.448253  1
  O  O30  1  0.433351  0.539615  0.248409  1
  O  O31  1  0.014315  0.701316  0.315967  1
  O  O32  1  0.887707  0.815000  0.083716  1
  O  O33  1  0.326714  0.688440  0.013495  1
