# generated using pymatgen
data_LiNi2P3O10
_symmetry_space_group_name_H-M   'P 1'
_cell_length_a   7.88263787
_cell_length_b   7.88263787
_cell_length_c   8.61978535
_cell_angle_alpha   64.95719507
_cell_angle_beta   115.04280493
_cell_angle_gamma   108.51666823
_symmetry_Int_Tables_number   1
_chemical_formula_structural   LiNi2P3O10
_chemical_formula_sum   'Li2 Ni4 P6 O20'
_cell_volume   433.33628729
_cell_formula_units_Z   2
loop_
 _symmetry_equiv_pos_site_id
 _symmetry_equiv_pos_as_xyz
  1  'x, y, z'
loop_
 _atom_site_type_symbol
 _atom_site_label
 _atom_site_symmetry_multiplicity
 _atom_site_fract_x
 _atom_site_fract_y
 _atom_site_fract_z
 _atom_site_occupancy
  Li  Li0  1  0.361465  0.361465  0.750000  1
  Li  Li1  1  0.638535  0.638535  0.250000  1
  Ni  Ni2  1  0.244976  0.676310  0.954738  1
  Ni  Ni3  1  0.323690  0.755024  0.454738  1
  Ni  Ni4  1  0.676310  0.244976  0.545262  1
  Ni  Ni5  1  0.755024  0.323690  0.045262  1
  P  P6  1  0.553254  0.843668  0.810939  1
  P  P7  1  0.156332  0.446746  0.310939  1
  P  P8  1  0.910003  0.910003  0.750000  1
  P  P9  1  0.089997  0.089997  0.250000  1
  P  P10  1  0.843668  0.553254  0.689061  1
  P  P11  1  0.446746  0.156332  0.189061  1
  O  O12  1  0.109696  0.884381  0.875714  1
  O  O13  1  0.115619  0.890304  0.375714  1
  O  O14  1  0.045162  0.523878  0.815304  1
  O  O15  1  0.521525  0.785323  0.992605  1
  O  O16  1  0.430506  0.692046  0.720519  1
  O  O17  1  0.476122  0.954838  0.315304  1
  O  O18  1  0.775978  0.827868  0.873254  1
  O  O19  1  0.214677  0.478475  0.492605  1
  O  O20  1  0.307954  0.569494  0.220519  1
  O  O21  1  0.827868  0.775978  0.626746  1
  O  O22  1  0.172132  0.224022  0.373254  1
  O  O23  1  0.692046  0.430506  0.779481  1
  O  O24  1  0.785323  0.521525  0.507395  1
  O  O25  1  0.224022  0.172132  0.126746  1
  O  O26  1  0.523878  0.045162  0.684696  1
  O  O27  1  0.569494  0.307954  0.279481  1
  O  O28  1  0.478475  0.214677  0.007395  1
  O  O29  1  0.954838  0.476122  0.184696  1
  O  O30  1  0.884381  0.109696  0.624286  1
  O  O31  1  0.890304  0.115619  0.124286  1
