# generated using pymatgen
data_Fe5O7F3
_symmetry_space_group_name_H-M   'P 1'
_cell_length_a   4.67032034
_cell_length_b   4.67279618
_cell_length_c   15.25447231
_cell_angle_alpha   90.04948585
_cell_angle_beta   90.03633149
_cell_angle_gamma   90.10831670
_symmetry_Int_Tables_number   1
_chemical_formula_structural   Fe5O7F3
_chemical_formula_sum   'Fe10 O14 F6'
_cell_volume   332.90450416
_cell_formula_units_Z   2
loop_
 _symmetry_equiv_pos_site_id
 _symmetry_equiv_pos_as_xyz
  1  'x, y, z'
loop_
 _atom_site_type_symbol
 _atom_site_label
 _atom_site_symmetry_multiplicity
 _atom_site_fract_x
 _atom_site_fract_y
 _atom_site_fract_z
 _atom_site_occupancy
  Fe  Fe0  1  0.015559  0.959600  0.993933  1
  Fe  Fe1  1  0.976863  0.016133  0.800326  1
  Fe  Fe2  1  0.968200  0.011272  0.606032  1
  Fe  Fe3  1  0.986027  0.978610  0.399784  1
  Fe  Fe4  1  0.982874  0.988224  0.199066  1
  Fe  Fe5  1  0.495793  0.491217  0.900889  1
  Fe  Fe6  1  0.527988  0.510641  0.493869  1
  Fe  Fe7  1  0.507935  0.479675  0.699983  1
  Fe  Fe8  1  0.516740  0.514990  0.299698  1
  Fe  Fe9  1  0.513851  0.527093  0.105597  1
  O  O10  1  0.799267  0.796506  0.896964  1
  O  O11  1  0.790931  0.807670  0.704659  1
  O  O12  1  0.810886  0.817635  0.502579  1
  O  O13  1  0.811539  0.810296  0.298714  1
  O  O14  1  0.823152  0.807127  0.097049  1
  O  O15  1  0.676520  0.309155  0.803627  1
  O  O16  1  0.684770  0.317769  0.597878  1
  O  O17  1  0.701790  0.306116  0.395303  1
  O  O18  1  0.695869  0.306783  0.201885  1
  O  O19  1  0.322817  0.676552  0.999574  1
  O  O20  1  0.310478  0.695533  0.397461  1
  O  O21  1  0.306198  0.698609  0.203851  1
  O  O22  1  0.190727  0.187027  0.898527  1
  O  O23  1  0.181835  0.197716  0.702763  1
  F  F24  1  0.708553  0.292083  0.003065  1
  F  F25  1  0.291828  0.696029  0.798878  1
  F  F26  1  0.296388  0.704210  0.599224  1
  F  F27  1  0.198816  0.203962  0.501099  1
  F  F28  1  0.207225  0.194162  0.097779  1
  F  F29  1  0.198580  0.197604  0.299942  1
