# generated using pymatgen
data_PaO2
_symmetry_space_group_name_H-M   'P 1'
_cell_length_a   5.19169261
_cell_length_b   5.19169261
_cell_length_c   3.64252676
_cell_angle_alpha   90.00000000
_cell_angle_beta   90.00000000
_cell_angle_gamma   90.00000000
_symmetry_Int_Tables_number   1
_chemical_formula_structural   PaO2
_chemical_formula_sum   'Pa2 O4'
_cell_volume   98.17947211
_cell_formula_units_Z   2
loop_
 _symmetry_equiv_pos_site_id
 _symmetry_equiv_pos_as_xyz
  1  'x, y, z'
loop_
 _atom_site_type_symbol
 _atom_site_label
 _atom_site_symmetry_multiplicity
 _atom_site_fract_x
 _atom_site_fract_y
 _atom_site_fract_z
 _atom_site_occupancy
  Pa  Pa0  1  0.000000  0.000000  0.000000  1
  Pa  Pa1  1  0.500000  0.500000  0.500000  1
  O  O2  1  0.308587  0.308587  0.000000  1
  O  O3  1  0.691413  0.691413  0.000000  1
  O  O4  1  0.191413  0.808587  0.500000  1
  O  O5  1  0.808587  0.191413  0.500000  1
