# generated using pymatgen
data_Li6Mn2B4SO16
_symmetry_space_group_name_H-M   'P 1'
_cell_length_a   9.37921869
_cell_length_b   9.37921869
_cell_length_c   9.37921869
_cell_angle_alpha   60.00000000
_cell_angle_beta   60.00000000
_cell_angle_gamma   60.00000000
_symmetry_Int_Tables_number   1
_chemical_formula_structural   Li6Mn2B4SO16
_chemical_formula_sum   'Li12 Mn4 B8 S2 O32'
_cell_volume   583.42493737
_cell_formula_units_Z   2
loop_
 _symmetry_equiv_pos_site_id
 _symmetry_equiv_pos_as_xyz
  1  'x, y, z'
loop_
 _atom_site_type_symbol
 _atom_site_label
 _atom_site_symmetry_multiplicity
 _atom_site_fract_x
 _atom_site_fract_y
 _atom_site_fract_z
 _atom_site_occupancy
  Li  Li0  1  0.970007  0.529993  0.970007  1
  Li  Li1  1  0.529993  0.970007  0.970007  1
  Li  Li2  1  0.279993  0.720007  0.720007  1
  Li  Li3  1  0.529993  0.970007  0.529993  1
  Li  Li4  1  0.279993  0.279993  0.720007  1
  Li  Li5  1  0.720007  0.720007  0.279993  1
  Li  Li6  1  0.970007  0.970007  0.529993  1
  Li  Li7  1  0.529993  0.529993  0.970007  1
  Li  Li8  1  0.720007  0.279993  0.720007  1
  Li  Li9  1  0.279993  0.720007  0.279993  1
  Li  Li10  1  0.720007  0.279993  0.279993  1
  Li  Li11  1  0.970007  0.529993  0.529993  1
  Mn  Mn12  1  0.625000  0.125000  0.125000  1
  Mn  Mn13  1  0.125000  0.125000  0.125000  1
  Mn  Mn14  1  0.125000  0.125000  0.625000  1
  Mn  Mn15  1  0.125000  0.625000  0.125000  1
  B  B16  1  0.908355  0.908355  0.908355  1
  B  B17  1  0.341645  0.341645  0.975066  1
  B  B18  1  0.341645  0.975066  0.341645  1
  B  B19  1  0.274934  0.908355  0.908355  1
  B  B20  1  0.975066  0.341645  0.341645  1
  B  B21  1  0.908355  0.274934  0.908355  1
  B  B22  1  0.341645  0.341645  0.341645  1
  B  B23  1  0.908355  0.908355  0.274934  1
  S  S24  1  0.500000  0.500000  0.500000  1
  S  S25  1  0.750000  0.750000  0.750000  1
  O  O26  1  0.565209  0.565209  0.304372  1
  O  O27  1  0.565209  0.304372  0.565209  1
  O  O28  1  0.304372  0.565209  0.565209  1
  O  O29  1  0.497416  0.972040  0.325581  1
  O  O30  1  0.565209  0.565209  0.565209  1
  O  O31  1  0.204963  0.325581  0.972040  1
  O  O32  1  0.325581  0.204963  0.497416  1
  O  O33  1  0.497416  0.204963  0.972040  1
  O  O34  1  0.045037  0.752584  0.924419  1
  O  O35  1  0.277960  0.924419  0.752584  1
  O  O36  1  0.325581  0.972040  0.204963  1
  O  O37  1  0.325581  0.497416  0.972040  1
  O  O38  1  0.752584  0.924419  0.045037  1
  O  O39  1  0.045037  0.277960  0.752584  1
  O  O40  1  0.972040  0.204963  0.325581  1
  O  O41  1  0.972040  0.497416  0.204963  1
  O  O42  1  0.277960  0.752584  0.045037  1
  O  O43  1  0.204963  0.972040  0.497416  1
  O  O44  1  0.277960  0.045037  0.924419  1
  O  O45  1  0.497416  0.325581  0.204963  1
  O  O46  1  0.924419  0.752584  0.277960  1
  O  O47  1  0.924419  0.277960  0.045037  1
  O  O48  1  0.972040  0.325581  0.497416  1
  O  O49  1  0.204963  0.497416  0.325581  1
  O  O50  1  0.752584  0.045037  0.277960  1
  O  O51  1  0.924419  0.045037  0.752584  1
  O  O52  1  0.045037  0.924419  0.277960  1
  O  O53  1  0.684791  0.684791  0.684791  1
  O  O54  1  0.752584  0.277960  0.924419  1
  O  O55  1  0.945628  0.684791  0.684791  1
  O  O56  1  0.684791  0.945628  0.684791  1
  O  O57  1  0.684791  0.684791  0.945628  1
