# generated using pymatgen
data_Ni5Te(PO4)6
_symmetry_space_group_name_H-M   'P 1'
_cell_length_a   8.50249479
_cell_length_b   8.50249479
_cell_length_c   8.50249479
_cell_angle_alpha   61.16755165
_cell_angle_beta   61.16755165
_cell_angle_gamma   61.16755165
_symmetry_Int_Tables_number   1
_chemical_formula_structural   Ni5Te(PO4)6
_chemical_formula_sum   'Ni5 Te1 P6 O24'
_cell_volume   446.05182866
_cell_formula_units_Z   1
loop_
 _symmetry_equiv_pos_site_id
 _symmetry_equiv_pos_as_xyz
  1  'x, y, z'
loop_
 _atom_site_type_symbol
 _atom_site_label
 _atom_site_symmetry_multiplicity
 _atom_site_fract_x
 _atom_site_fract_y
 _atom_site_fract_z
 _atom_site_occupancy
  Ni  Ni0  1  0.992874  0.992874  0.992874  1
  Ni  Ni1  1  0.642427  0.642427  0.642427  1
  Ni  Ni2  1  0.500685  0.500685  0.500685  1
  Ni  Ni3  1  0.856354  0.856354  0.856354  1
  Ni  Ni4  1  0.359573  0.359573  0.359573  1
  Te  Te5  1  0.141900  0.141900  0.141900  1
  P  P6  1  0.951983  0.255672  0.549038  1
  P  P7  1  0.549038  0.951983  0.255672  1
  P  P8  1  0.255672  0.549038  0.951983  1
  P  P9  1  0.743080  0.461826  0.049157  1
  P  P10  1  0.461826  0.049157  0.743080  1
  P  P11  1  0.049157  0.743080  0.461826  1
  O  O12  1  0.499246  0.108533  0.323281  1
  O  O13  1  0.323281  0.499246  0.108533  1
  O  O14  1  0.108533  0.323281  0.499246  1
  O  O15  1  0.944196  0.090202  0.738879  1
  O  O16  1  0.988489  0.184787  0.383645  1
  O  O17  1  0.754899  0.405979  0.556798  1
  O  O18  1  0.738879  0.944196  0.090202  1
  O  O19  1  0.556798  0.754899  0.405979  1
  O  O20  1  0.817328  0.608545  0.014522  1
  O  O21  1  0.405979  0.556798  0.754899  1
  O  O22  1  0.915419  0.252218  0.060073  1
  O  O23  1  0.608545  0.014522  0.817328  1
  O  O24  1  0.383645  0.988489  0.184787  1
  O  O25  1  0.090202  0.738879  0.944196  1
  O  O26  1  0.597464  0.432940  0.250676  1
  O  O27  1  0.184787  0.383645  0.988489  1
  O  O28  1  0.432940  0.250676  0.597464  1
  O  O29  1  0.252218  0.060073  0.915419  1
  O  O30  1  0.250676  0.597464  0.432940  1
  O  O31  1  0.014522  0.817328  0.608545  1
  O  O32  1  0.060073  0.915419  0.252218  1
  O  O33  1  0.894494  0.686851  0.485968  1
  O  O34  1  0.686851  0.485968  0.894494  1
  O  O35  1  0.485968  0.894494  0.686851  1
