# generated using pymatgen
data_Li4Cr2Fe5O12
_symmetry_space_group_name_H-M   'P 1'
_cell_length_a   5.12417099
_cell_length_b   9.07970174
_cell_length_c   9.84929561
_cell_angle_alpha   90.00000000
_cell_angle_beta   101.00238124
_cell_angle_gamma   90.00000000
_symmetry_Int_Tables_number   1
_chemical_formula_structural   Li4Cr2Fe5O12
_chemical_formula_sum   'Li8 Cr4 Fe10 O24'
_cell_volume   449.82484143
_cell_formula_units_Z   2
loop_
 _symmetry_equiv_pos_site_id
 _symmetry_equiv_pos_as_xyz
  1  'x, y, z'
loop_
 _atom_site_type_symbol
 _atom_site_label
 _atom_site_symmetry_multiplicity
 _atom_site_fract_x
 _atom_site_fract_y
 _atom_site_fract_z
 _atom_site_occupancy
  Li  Li0  1  0.005422  0.912613  0.257074  1
  Li  Li1  1  0.491296  0.921038  0.742277  1
  Li  Li2  1  0.760024  0.583136  0.494741  1
  Li  Li3  1  0.503141  0.583687  0.741081  1
  Li  Li4  1  0.994578  0.412613  0.742926  1
  Li  Li5  1  0.508704  0.421038  0.257723  1
  Li  Li6  1  0.239976  0.083136  0.505259  1
  Li  Li7  1  0.496859  0.083687  0.258919  1
  Cr  Cr8  1  0.247717  0.748410  0.496229  1
  Cr  Cr9  1  0.749343  0.747290  0.001841  1
  Cr  Cr10  1  0.250657  0.247290  0.998159  1
  Cr  Cr11  1  0.752283  0.248410  0.503771  1
  Fe  Fe12  1  0.248125  0.922015  0.995072  1
  Fe  Fe13  1  0.749364  0.924420  0.504683  1
  Fe  Fe14  1  0.994585  0.748701  0.742744  1
  Fe  Fe15  1  0.240548  0.579961  0.002414  1
  Fe  Fe16  1  0.511921  0.739624  0.258584  1
  Fe  Fe17  1  0.250636  0.424420  0.495317  1
  Fe  Fe18  1  0.751875  0.422015  0.004928  1
  Fe  Fe19  1  0.005415  0.248701  0.257256  1
  Fe  Fe20  1  0.488079  0.239624  0.741416  1
  Fe  Fe21  1  0.759452  0.079961  0.997586  1
  O  O22  1  0.115819  0.896755  0.617836  1
  O  O23  1  0.879965  0.896314  0.881752  1
  O  O24  1  0.868379  0.766511  0.381816  1
  O  O25  1  0.134744  0.761899  0.115293  1
  O  O26  1  0.386721  0.900476  0.376407  1
  O  O27  1  0.619726  0.904024  0.117923  1
  O  O28  1  0.131356  0.592219  0.620024  1
  O  O29  1  0.627899  0.759505  0.622643  1
  O  O30  1  0.858887  0.590254  0.876826  1
  O  O31  1  0.369383  0.757472  0.877937  1
  O  O32  1  0.624544  0.590329  0.120678  1
  O  O33  1  0.387730  0.590596  0.383195  1
  O  O34  1  0.884181  0.396755  0.382164  1
  O  O35  1  0.120035  0.396314  0.118248  1
  O  O36  1  0.131621  0.266511  0.618184  1
  O  O37  1  0.613279  0.400476  0.623593  1
  O  O38  1  0.865256  0.261899  0.884707  1
  O  O39  1  0.380274  0.404024  0.882077  1
  O  O40  1  0.372101  0.259505  0.377357  1
  O  O41  1  0.141113  0.090254  0.123174  1
  O  O42  1  0.868644  0.092219  0.379976  1
  O  O43  1  0.630617  0.257472  0.122063  1
  O  O44  1  0.612270  0.090596  0.616805  1
  O  O45  1  0.375456  0.090329  0.879322  1
