# generated using pymatgen
data_Fe10O9F11
_symmetry_space_group_name_H-M   'P 1'
_cell_length_a   4.73647740
_cell_length_b   4.73785770
_cell_length_c   15.65390767
_cell_angle_alpha   90.10669308
_cell_angle_beta   90.30269230
_cell_angle_gamma   92.77081687
_symmetry_Int_Tables_number   1
_chemical_formula_structural   Fe10O9F11
_chemical_formula_sum   'Fe10 O9 F11'
_cell_volume   350.86914384
_cell_formula_units_Z   1
loop_
 _symmetry_equiv_pos_site_id
 _symmetry_equiv_pos_as_xyz
  1  'x, y, z'
loop_
 _atom_site_type_symbol
 _atom_site_label
 _atom_site_symmetry_multiplicity
 _atom_site_fract_x
 _atom_site_fract_y
 _atom_site_fract_z
 _atom_site_occupancy
  Fe  Fe0  1  0.008821  0.991139  0.992602  1
  Fe  Fe1  1  0.005434  0.006411  0.200171  1
  Fe  Fe2  1  0.979224  0.959883  0.407643  1
  Fe  Fe3  1  0.053472  0.000216  0.601470  1
  Fe  Fe4  1  0.023309  0.971869  0.798181  1
  Fe  Fe5  1  0.504034  0.497628  0.102078  1
  Fe  Fe6  1  0.474529  0.520080  0.496832  1
  Fe  Fe7  1  0.514807  0.509351  0.291301  1
  Fe  Fe8  1  0.480710  0.504428  0.695951  1
  Fe  Fe9  1  0.474956  0.523916  0.914158  1
  O  O10  1  0.189116  0.804997  0.497586  1
  O  O11  1  0.196263  0.815491  0.701919  1
  O  O12  1  0.190143  0.807058  0.898627  1
  O  O13  1  0.298642  0.301547  0.005222  1
  O  O14  1  0.303827  0.300362  0.202169  1
  O  O15  1  0.313590  0.309801  0.589397  1
  O  O16  1  0.699049  0.702208  0.005200  1
  O  O17  1  0.709172  0.705354  0.199735  1
  O  O18  1  0.678204  0.680672  0.395408  1
  F  F19  1  0.196589  0.809115  0.102900  1
  F  F20  1  0.188955  0.803429  0.300793  1
  F  F21  1  0.285599  0.289485  0.393824  1
  F  F22  1  0.298524  0.306363  0.808347  1
  F  F23  1  0.710405  0.716152  0.592108  1
  F  F24  1  0.691178  0.694531  0.806621  1
  F  F25  1  0.811683  0.193962  0.102122  1
  F  F26  1  0.800359  0.196643  0.497008  1
  F  F27  1  0.806486  0.187572  0.301629  1
  F  F28  1  0.799966  0.196367  0.896817  1
  F  F29  1  0.812953  0.193968  0.702178  1
