# generated using pymatgen
data_K5La4Si4O16F
_symmetry_space_group_name_H-M   'P 1'
_cell_length_a   9.33352273
_cell_length_b   9.33352273
_cell_length_c   9.33352273
_cell_angle_alpha   95.10857530
_cell_angle_beta   95.10857530
_cell_angle_gamma   145.27677945
_symmetry_Int_Tables_number   1
_chemical_formula_structural   K5La4Si4O16F
_chemical_formula_sum   'K5 La4 Si4 O16 F1'
_cell_volume   442.04375597
_cell_formula_units_Z   1
loop_
 _symmetry_equiv_pos_site_id
 _symmetry_equiv_pos_as_xyz
  1  'x, y, z'
loop_
 _atom_site_type_symbol
 _atom_site_label
 _atom_site_symmetry_multiplicity
 _atom_site_fract_x
 _atom_site_fract_y
 _atom_site_fract_z
 _atom_site_occupancy
  K  K0  1  0.600201  0.090534  0.693926  1
  K  K1  1  0.396608  0.906276  0.306074  1
  K  K2  1  0.909466  0.603392  0.509668  1
  K  K3  1  0.093724  0.399799  0.490332  1
  K  K4  1  0.500000  0.500000  0.000000  1
  La  La5  1  0.110961  0.806019  0.934704  1
  La  La6  1  0.871315  0.176257  0.065296  1
  La  La7  1  0.193981  0.128685  0.304942  1
  La  La8  1  0.823743  0.889039  0.695058  1
  Si  Si9  1  0.749316  0.401474  0.144349  1
  Si  Si10  1  0.257125  0.604967  0.855651  1
  Si  Si11  1  0.598526  0.742875  0.347842  1
  Si  Si12  1  0.395033  0.250684  0.652158  1
  O  O13  1  0.950300  0.707991  0.168947  1
  O  O14  1  0.539044  0.781353  0.831053  1
  O  O15  1  0.292009  0.460956  0.242309  1
  O  O16  1  0.218647  0.049700  0.757691  1
  O  O17  1  0.722006  0.300649  0.975021  1
  O  O18  1  0.325629  0.746985  0.024979  1
  O  O19  1  0.699351  0.674371  0.421357  1
  O  O20  1  0.253015  0.277994  0.578643  1
  O  O21  1  0.119872  0.611027  0.738213  1
  O  O22  1  0.872814  0.381659  0.261787  1
  O  O23  1  0.388973  0.127186  0.508845  1
  O  O24  1  0.618341  0.880128  0.491155  1
  O  O25  1  0.054694  0.300090  0.842461  1
  O  O26  1  0.457629  0.212233  0.157539  1
  O  O27  1  0.699910  0.542371  0.754604  1
  O  O28  1  0.787767  0.945306  0.245396  1
  F  F29  1  0.000000  0.000000  0.000000  1
