# generated using pymatgen
data_LiMn(PO4)2
_symmetry_space_group_name_H-M   'P 1'
_cell_length_a   4.80159399
_cell_length_b   17.05908237
_cell_length_c   7.88198581
_cell_angle_alpha   90.00000000
_cell_angle_beta   123.15518686
_cell_angle_gamma   90.00000000
_symmetry_Int_Tables_number   1
_chemical_formula_structural   LiMn(PO4)2
_chemical_formula_sum   'Li4 Mn4 P8 O32'
_cell_volume   540.50782908
_cell_formula_units_Z   4
loop_
 _symmetry_equiv_pos_site_id
 _symmetry_equiv_pos_as_xyz
  1  'x, y, z'
loop_
 _atom_site_type_symbol
 _atom_site_label
 _atom_site_symmetry_multiplicity
 _atom_site_fract_x
 _atom_site_fract_y
 _atom_site_fract_z
 _atom_site_occupancy
  Li  Li0  1  0.713272  0.884927  0.499478  1
  Li  Li1  1  0.286728  0.384927  0.000522  1
  Li  Li2  1  0.713272  0.615073  0.999478  1
  Li  Li3  1  0.286728  0.115073  0.500522  1
  Mn  Mn4  1  0.193336  0.869762  0.987755  1
  Mn  Mn5  1  0.806664  0.369762  0.512245  1
  Mn  Mn6  1  0.193336  0.630238  0.487755  1
  Mn  Mn7  1  0.806664  0.130238  0.012245  1
  P  P8  1  0.902174  0.712188  0.729254  1
  P  P9  1  0.499833  0.534347  0.274048  1
  P  P10  1  0.500167  0.034347  0.225952  1
  P  P11  1  0.097826  0.212188  0.770746  1
  P  P12  1  0.902174  0.787812  0.229254  1
  P  P13  1  0.499833  0.965653  0.774048  1
  P  P14  1  0.500167  0.465653  0.725952  1
  P  P15  1  0.097826  0.287812  0.270746  1
  O  O16  1  0.823232  0.192462  0.812960  1
  O  O17  1  0.556222  0.692871  0.534661  1
  O  O18  1  0.981457  0.671641  0.922070  1
  O  O19  1  0.173098  0.070473  0.053812  1
  O  O20  1  0.793500  0.434434  0.712439  1
  O  O21  1  0.591758  0.052338  0.443262  1
  O  O22  1  0.892907  0.803509  0.755861  1
  O  O23  1  0.510734  0.443085  0.294305  1
  O  O24  1  0.489266  0.943085  0.205695  1
  O  O25  1  0.408242  0.552338  0.056738  1
  O  O26  1  0.826902  0.570473  0.446188  1
  O  O27  1  0.107093  0.303509  0.744139  1
  O  O28  1  0.206500  0.934434  0.787561  1
  O  O29  1  0.018543  0.171641  0.577930  1
  O  O30  1  0.823232  0.307538  0.312960  1
  O  O31  1  0.443778  0.192871  0.965339  1
  O  O32  1  0.556222  0.807129  0.034661  1
  O  O33  1  0.176768  0.692462  0.687040  1
  O  O34  1  0.981457  0.828359  0.422070  1
  O  O35  1  0.793500  0.065566  0.212439  1
  O  O36  1  0.892907  0.696491  0.255861  1
  O  O37  1  0.173098  0.429527  0.553812  1
  O  O38  1  0.591758  0.447662  0.943262  1
  O  O39  1  0.510734  0.056915  0.794305  1
  O  O40  1  0.489266  0.556915  0.705695  1
  O  O41  1  0.107093  0.196491  0.244139  1
  O  O42  1  0.408242  0.947662  0.556738  1
  O  O43  1  0.206500  0.565566  0.287561  1
  O  O44  1  0.826902  0.929527  0.946188  1
  O  O45  1  0.018543  0.328359  0.077930  1
  O  O46  1  0.443778  0.307129  0.465339  1
  O  O47  1  0.176768  0.807538  0.187040  1
