# generated using pymatgen
data_Mn6O7F5
_symmetry_space_group_name_H-M   'P 1'
_cell_length_a   4.62265636
_cell_length_b   5.68522020
_cell_length_c   15.29817073
_cell_angle_alpha   89.94314697
_cell_angle_beta   89.73884860
_cell_angle_gamma   87.77698722
_symmetry_Int_Tables_number   1
_chemical_formula_structural   Mn6O7F5
_chemical_formula_sum   'Mn12 O14 F10'
_cell_volume   401.74157919
_cell_formula_units_Z   2
loop_
 _symmetry_equiv_pos_site_id
 _symmetry_equiv_pos_as_xyz
  1  'x, y, z'
loop_
 _atom_site_type_symbol
 _atom_site_label
 _atom_site_symmetry_multiplicity
 _atom_site_fract_x
 _atom_site_fract_y
 _atom_site_fract_z
 _atom_site_occupancy
  Mn  Mn0  1  0.983318  0.846985  0.407368  1
  Mn  Mn1  1  0.981261  0.162371  0.242619  1
  Mn  Mn2  1  0.004250  0.846555  0.079002  1
  Mn  Mn3  1  0.980429  0.832903  0.751551  1
  Mn  Mn4  1  0.990714  0.174340  0.575504  1
  Mn  Mn5  1  0.957803  0.152059  0.914933  1
  Mn  Mn6  1  0.480403  0.624304  0.588816  1
  Mn  Mn7  1  0.521224  0.649172  0.925098  1
  Mn  Mn8  1  0.501275  0.635814  0.258860  1
  Mn  Mn9  1  0.499715  0.351395  0.086575  1
  Mn  Mn10  1  0.502289  0.345190  0.416391  1
  Mn  Mn11  1  0.515926  0.362917  0.752775  1
  O  O12  1  0.765637  0.884914  0.300835  1
  O  O13  1  0.780263  0.887510  0.972103  1
  O  O14  1  0.786943  0.118822  0.135045  1
  O  O15  1  0.778825  0.113255  0.465619  1
  O  O16  1  0.765112  0.117266  0.807544  1
  O  O17  1  0.727334  0.394894  0.310648  1
  O  O18  1  0.722097  0.391866  0.644944  1
  O  O19  1  0.716443  0.605650  0.812966  1
  O  O20  1  0.727623  0.385224  0.977033  1
  O  O21  1  0.286061  0.622029  0.029110  1
  O  O22  1  0.280350  0.390681  0.194885  1
  O  O23  1  0.280393  0.619991  0.362366  1
  O  O24  1  0.282959  0.379729  0.525804  1
  O  O25  1  0.270539  0.605449  0.695225  1
  F  F26  1  0.754560  0.888469  0.633699  1
  F  F27  1  0.742629  0.620519  0.151594  1
  F  F28  1  0.739843  0.619536  0.485673  1
  F  F29  1  0.255535  0.377630  0.859120  1
  F  F30  1  0.251995  0.875154  0.189673  1
  F  F31  1  0.233422  0.868866  0.525386  1
  F  F32  1  0.224947  0.121215  0.347612  1
  F  F33  1  0.228558  0.128332  0.015156  1
  F  F34  1  0.244012  0.884283  0.865056  1
  F  F35  1  0.235314  0.114712  0.693416  1
