# generated using pymatgen
data_NaNdO2
_symmetry_space_group_name_H-M   'P 1'
_cell_length_a   6.49715713
_cell_length_b   6.49715713
_cell_length_c   6.49715713
_cell_angle_alpha   136.95335569
_cell_angle_beta   136.95335569
_cell_angle_gamma   62.50982562
_symmetry_Int_Tables_number   1
_chemical_formula_structural   NaNdO2
_chemical_formula_sum   'Na2 Nd2 O4'
_cell_volume   126.23411478
_cell_formula_units_Z   2
loop_
 _symmetry_equiv_pos_site_id
 _symmetry_equiv_pos_as_xyz
  1  'x, y, z'
loop_
 _atom_site_type_symbol
 _atom_site_label
 _atom_site_symmetry_multiplicity
 _atom_site_fract_x
 _atom_site_fract_y
 _atom_site_fract_z
 _atom_site_occupancy
  Na  Na0  1  0.750000  0.250000  0.500000  1
  Na  Na1  1  1.000000  0.000000  0.000000  1
  Nd  Nd2  1  0.500000  0.500000  0.000000  1
  Nd  Nd3  1  0.250000  0.750000  0.500000  1
  O  O4  1  0.282169  0.282169  0.000000  1
  O  O5  1  0.032169  0.532169  0.500000  1
  O  O6  1  0.717831  0.717831  0.000000  1
  O  O7  1  0.467831  0.967831  0.500000  1
