# generated using pymatgen
data_Rb2Li2GeO4
_symmetry_space_group_name_H-M   'P 1'
_cell_length_a   5.68187944
_cell_length_b   5.82424222
_cell_length_c   8.97973783
_cell_angle_alpha   83.40305777
_cell_angle_beta   74.41697094
_cell_angle_gamma   85.10216735
_symmetry_Int_Tables_number   1
_chemical_formula_structural   Rb2Li2GeO4
_chemical_formula_sum   'Rb4 Li4 Ge2 O8'
_cell_volume   283.88306224
_cell_formula_units_Z   2
loop_
 _symmetry_equiv_pos_site_id
 _symmetry_equiv_pos_as_xyz
  1  'x, y, z'
loop_
 _atom_site_type_symbol
 _atom_site_label
 _atom_site_symmetry_multiplicity
 _atom_site_fract_x
 _atom_site_fract_y
 _atom_site_fract_z
 _atom_site_occupancy
  Rb  Rb0  1  0.469570  0.850072  0.728895  1
  Rb  Rb1  1  0.530430  0.149928  0.271105  1
  Rb  Rb2  1  0.788342  0.726741  0.018068  1
  Rb  Rb3  1  0.211658  0.273259  0.981932  1
  Li  Li4  1  0.069888  0.813812  0.560577  1
  Li  Li5  1  0.930112  0.186188  0.439423  1
  Li  Li6  1  0.304426  0.408811  0.580766  1
  Li  Li7  1  0.695574  0.591189  0.419234  1
  Ge  Ge8  1  0.144840  0.686625  0.276295  1
  Ge  Ge9  1  0.855160  0.313375  0.723705  1
  O  O10  1  0.011319  0.568643  0.723506  1
  O  O11  1  0.988681  0.431357  0.276494  1
  O  O12  1  0.901463  0.869193  0.389962  1
  O  O13  1  0.098537  0.130807  0.610038  1
  O  O14  1  0.272969  0.799752  0.084116  1
  O  O15  1  0.727031  0.200248  0.915884  1
  O  O16  1  0.364494  0.640422  0.391311  1
  O  O17  1  0.635506  0.359578  0.608689  1
