# generated using pymatgen
data_Li2Mn3(BO3)3
_symmetry_space_group_name_H-M   'P 1'
_cell_length_a   5.29341945
_cell_length_b   6.20144561
_cell_length_c   11.78264526
_cell_angle_alpha   84.47723958
_cell_angle_beta   79.00490454
_cell_angle_gamma   87.45505727
_symmetry_Int_Tables_number   1
_chemical_formula_structural   Li2Mn3(BO3)3
_chemical_formula_sum   'Li4 Mn6 B6 O18'
_cell_volume   377.79030536
_cell_formula_units_Z   2
loop_
 _symmetry_equiv_pos_site_id
 _symmetry_equiv_pos_as_xyz
  1  'x, y, z'
loop_
 _atom_site_type_symbol
 _atom_site_label
 _atom_site_symmetry_multiplicity
 _atom_site_fract_x
 _atom_site_fract_y
 _atom_site_fract_z
 _atom_site_occupancy
  Li  Li0  1  0.154006  0.858559  0.542924  1
  Li  Li1  1  0.521609  0.793788  0.134229  1
  Li  Li2  1  0.845994  0.141441  0.457076  1
  Li  Li3  1  0.478391  0.206212  0.865771  1
  Mn  Mn4  1  0.691085  0.692243  0.447626  1
  Mn  Mn5  1  0.308915  0.307757  0.552374  1
  Mn  Mn6  1  0.984088  0.965600  0.211397  1
  Mn  Mn7  1  0.356361  0.368306  0.121415  1
  Mn  Mn8  1  0.015912  0.034400  0.788603  1
  Mn  Mn9  1  0.643639  0.631694  0.878585  1
  B  B10  1  0.409857  0.072622  0.331842  1
  B  B11  1  0.744836  0.384713  0.662821  1
  B  B12  1  0.081314  0.758663  0.995863  1
  B  B13  1  0.255164  0.615287  0.337179  1
  B  B14  1  0.590143  0.927378  0.668158  1
  B  B15  1  0.918686  0.241337  0.004137  1
  O  O16  1  0.336231  0.971319  0.656376  1
  O  O17  1  0.778091  0.875703  0.577115  1
  O  O18  1  0.663769  0.028681  0.343624  1
  O  O19  1  0.221909  0.124297  0.422885  1
  O  O20  1  0.346304  0.046439  0.222900  1
  O  O21  1  0.700546  0.382749  0.548716  1
  O  O22  1  0.324576  0.691793  0.014812  1
  O  O23  1  0.299454  0.617251  0.451284  1
  O  O24  1  0.887590  0.817810  0.084631  1
  O  O25  1  0.435408  0.542770  0.250885  1
  O  O26  1  0.018021  0.757152  0.884593  1
  O  O27  1  0.015734  0.703849  0.317252  1
  O  O28  1  0.653696  0.953561  0.777100  1
  O  O29  1  0.981979  0.242848  0.115407  1
  O  O30  1  0.112410  0.182190  0.915369  1
  O  O31  1  0.675424  0.308207  0.985188  1
  O  O32  1  0.564592  0.457230  0.749115  1
  O  O33  1  0.984266  0.296151  0.682748  1
