# generated using pymatgen
data_Ir2S3
_symmetry_space_group_name_H-M   'P 1'
_cell_length_a   6.34019519
_cell_length_b   6.34019519
_cell_length_c   6.34019519
_cell_angle_alpha   56.76615567
_cell_angle_beta   56.76615567
_cell_angle_gamma   56.76615567
_symmetry_Int_Tables_number   1
_chemical_formula_structural   Ir2S3
_chemical_formula_sum   'Ir4 S6'
_cell_volume   166.76261508
_cell_formula_units_Z   2
loop_
 _symmetry_equiv_pos_site_id
 _symmetry_equiv_pos_as_xyz
  1  'x, y, z'
loop_
 _atom_site_type_symbol
 _atom_site_label
 _atom_site_symmetry_multiplicity
 _atom_site_fract_x
 _atom_site_fract_y
 _atom_site_fract_z
 _atom_site_occupancy
  Ir  Ir0  1  0.648298  0.648298  0.648298  1
  Ir  Ir1  1  0.851702  0.851702  0.851702  1
  Ir  Ir2  1  0.148298  0.148298  0.148298  1
  Ir  Ir3  1  0.351702  0.351702  0.351702  1
  S  S4  1  0.953501  0.250000  0.546499  1
  S  S5  1  0.546499  0.953501  0.250000  1
  S  S6  1  0.250000  0.546499  0.953501  1
  S  S7  1  0.750000  0.453501  0.046499  1
  S  S8  1  0.453501  0.046499  0.750000  1
  S  S9  1  0.046499  0.750000  0.453501  1
