# generated using pymatgen
data_Na3(NiO2)2
_symmetry_space_group_name_H-M   'P 1'
_cell_length_a   5.55173636
_cell_length_b   8.60744086
_cell_length_c   10.06851323
_cell_angle_alpha   90.00000000
_cell_angle_beta   90.00000000
_cell_angle_gamma   90.00000000
_symmetry_Int_Tables_number   1
_chemical_formula_structural   Na3(NiO2)2
_chemical_formula_sum   'Na12 Ni8 O16'
_cell_volume   481.13641371
_cell_formula_units_Z   4
loop_
 _symmetry_equiv_pos_site_id
 _symmetry_equiv_pos_as_xyz
  1  'x, y, z'
loop_
 _atom_site_type_symbol
 _atom_site_label
 _atom_site_symmetry_multiplicity
 _atom_site_fract_x
 _atom_site_fract_y
 _atom_site_fract_z
 _atom_site_occupancy
  Na  Na0  1  0.945743  0.850773  0.096952  1
  Na  Na1  1  0.945743  0.850773  0.403048  1
  Na  Na2  1  0.848035  0.174654  0.250000  1
  Na  Na3  1  0.651965  0.674654  0.750000  1
  Na  Na4  1  0.554257  0.350773  0.903048  1
  Na  Na5  1  0.554257  0.350773  0.596952  1
  Na  Na6  1  0.445743  0.649227  0.096952  1
  Na  Na7  1  0.445743  0.649227  0.403048  1
  Na  Na8  1  0.348035  0.325346  0.250000  1
  Na  Na9  1  0.151965  0.825346  0.750000  1
  Na  Na10  1  0.054257  0.149227  0.596952  1
  Na  Na11  1  0.054257  0.149227  0.903048  1
  Ni  Ni12  1  0.940900  0.513266  0.122518  1
  Ni  Ni13  1  0.940900  0.513266  0.377482  1
  Ni  Ni14  1  0.559100  0.013266  0.877482  1
  Ni  Ni15  1  0.559100  0.013266  0.622518  1
  Ni  Ni16  1  0.440900  0.986734  0.122518  1
  Ni  Ni17  1  0.440900  0.986734  0.377482  1
  Ni  Ni18  1  0.059100  0.486734  0.622518  1
  Ni  Ni19  1  0.059100  0.486734  0.877482  1
  O  O20  1  0.890432  0.358658  0.750000  1
  O  O21  1  0.809289  0.603726  0.533194  1
  O  O22  1  0.809289  0.603726  0.966806  1
  O  O23  1  0.778908  0.935100  0.750000  1
  O  O24  1  0.721092  0.435100  0.250000  1
  O  O25  1  0.690711  0.103726  0.033194  1
  O  O26  1  0.690711  0.103726  0.466806  1
  O  O27  1  0.609568  0.858658  0.250000  1
  O  O28  1  0.390432  0.141342  0.750000  1
  O  O29  1  0.309289  0.896274  0.533194  1
  O  O30  1  0.309289  0.896274  0.966806  1
  O  O31  1  0.278908  0.564900  0.750000  1
  O  O32  1  0.221092  0.064900  0.250000  1
  O  O33  1  0.190711  0.396274  0.033194  1
  O  O34  1  0.190711  0.396274  0.466806  1
  O  O35  1  0.109568  0.641342  0.250000  1
