# generated using pymatgen
data_Na2Ti4O9
_symmetry_space_group_name_H-M   'P 1'
_cell_length_a   8.87064781
_cell_length_b   10.72619776
_cell_length_c   12.47295928
_cell_angle_alpha   101.90459623
_cell_angle_beta   110.78138985
_cell_angle_gamma   90.01451359
_symmetry_Int_Tables_number   1
_chemical_formula_structural   Na2Ti4O9
_chemical_formula_sum   'Na12 Ti24 O54'
_cell_volume   1082.20186429
_cell_formula_units_Z   6
loop_
 _symmetry_equiv_pos_site_id
 _symmetry_equiv_pos_as_xyz
  1  'x, y, z'
loop_
 _atom_site_type_symbol
 _atom_site_label
 _atom_site_symmetry_multiplicity
 _atom_site_fract_x
 _atom_site_fract_y
 _atom_site_fract_z
 _atom_site_occupancy
  Na  Na0  1  0.963315  0.100441  0.286674  1
  Na  Na1  1  0.864259  0.397270  0.726152  1
  Na  Na2  1  0.194754  0.397036  0.724621  1
  Na  Na3  1  0.529210  0.406766  0.724799  1
  Na  Na4  1  0.383716  0.297372  0.144785  1
  Na  Na5  1  0.756037  0.305477  0.141242  1
  Na  Na6  1  0.911393  0.695697  0.857939  1
  Na  Na7  1  0.288606  0.707120  0.853006  1
  Na  Na8  1  0.137888  0.594624  0.276405  1
  Na  Na9  1  0.471518  0.603782  0.274090  1
  Na  Na10  1  0.801987  0.604248  0.273139  1
  Na  Na11  1  0.682153  0.899452  0.713980  1
  Ti  Ti12  1  0.103814  0.182979  0.873539  1
  Ti  Ti13  1  0.438273  0.187842  0.877546  1
  Ti  Ti14  1  0.952709  0.117878  0.569201  1
  Ti  Ti15  1  0.285673  0.118495  0.570829  1
  Ti  Ti16  1  0.771761  0.194251  0.876883  1
  Ti  Ti17  1  0.615065  0.125178  0.563895  1
  Ti  Ti18  1  0.002661  0.009790  0.008966  1
  Ti  Ti19  1  0.333212  0.501142  0.998897  1
  Ti  Ti20  1  0.721399  0.370679  0.440103  1
  Ti  Ti21  1  0.384281  0.370490  0.440254  1
  Ti  Ti22  1  0.057887  0.379774  0.447386  1
  Ti  Ti23  1  0.662676  0.510584  0.991869  1
  Ti  Ti24  1  0.608371  0.618626  0.551487  1
  Ti  Ti25  1  0.005622  0.490622  0.009416  1
  Ti  Ti26  1  0.943605  0.626863  0.557262  1
  Ti  Ti27  1  0.282112  0.628093  0.559183  1
  Ti  Ti28  1  0.662891  0.992413  0.992785  1
  Ti  Ti29  1  0.331456  0.999943  0.999980  1
  Ti  Ti30  1  0.051829  0.874774  0.436435  1
  Ti  Ti31  1  0.381113  0.881206  0.428960  1
  Ti  Ti32  1  0.895308  0.807264  0.122973  1
  Ti  Ti33  1  0.714119  0.882501  0.431461  1
  Ti  Ti34  1  0.228582  0.812235  0.122750  1
  Ti  Ti35  1  0.562948  0.818540  0.126893  1
  O  O36  1  0.596128  0.059740  0.849552  1
  O  O37  1  0.258186  0.060314  0.850612  1
  O  O38  1  0.922774  0.061299  0.853081  1
  O  O39  1  0.129735  0.008490  0.593202  1
  O  O40  1  0.465357  0.009706  0.592716  1
  O  O41  1  0.793513  0.009660  0.592382  1
  O  O42  1  0.696169  0.219263  0.726432  1
  O  O43  1  0.029852  0.218739  0.726438  1
  O  O44  1  0.364060  0.218841  0.726892  1
  O  O45  1  0.301639  0.304129  0.938714  1
  O  O46  1  0.971784  0.304925  0.939689  1
  O  O47  1  0.635593  0.305399  0.939524  1
  O  O48  1  0.090641  0.217854  0.515884  1
  O  O49  1  0.424026  0.220174  0.516714  1
  O  O50  1  0.759705  0.221139  0.517231  1
  O  O51  1  0.855371  0.123397  0.050093  1
  O  O52  1  0.190475  0.124145  0.043865  1
  O  O53  1  0.521334  0.124603  0.041034  1
  O  O54  1  0.169908  0.316364  0.346830  1
  O  O55  1  0.840917  0.317929  0.342278  1
  O  O56  1  0.504929  0.323250  0.342511  1
  O  O57  1  0.779946  0.510585  0.891002  1
  O  O58  1  0.441844  0.514120  0.888113  1
  O  O59  1  0.113708  0.516160  0.893335  1
  O  O60  1  0.617306  0.444566  0.568056  1
  O  O61  1  0.949922  0.446512  0.568172  1
  O  O62  1  0.285094  0.447488  0.569555  1
  O  O63  1  0.714629  0.551383  0.429328  1
  O  O64  1  0.381310  0.551436  0.429629  1
  O  O65  1  0.048539  0.553811  0.430392  1
  O  O66  1  0.551956  0.483742  0.106143  1
  O  O67  1  0.224571  0.487498  0.111698  1
  O  O68  1  0.886146  0.489900  0.109509  1
  O  O69  1  0.160336  0.672797  0.656298  1
  O  O70  1  0.825076  0.678865  0.655671  1
  O  O71  1  0.496817  0.681162  0.653567  1
  O  O72  1  0.478496  0.876335  0.958393  1
  O  O73  1  0.145833  0.875916  0.958031  1
  O  O74  1  0.812342  0.877880  0.951944  1
  O  O75  1  0.906409  0.778045  0.481818  1
  O  O76  1  0.242180  0.778741  0.483231  1
  O  O77  1  0.576439  0.782316  0.485065  1
  O  O78  1  0.030572  0.694939  0.060444  1
  O  O79  1  0.695595  0.695931  0.061895  1
  O  O80  1  0.365151  0.696558  0.060639  1
  O  O81  1  0.303155  0.780372  0.273060  1
  O  O82  1  0.636316  0.782584  0.274025  1
  O  O83  1  0.970759  0.782418  0.273767  1
  O  O84  1  0.872834  0.990914  0.408031  1
  O  O85  1  0.201986  0.989821  0.408022  1
  O  O86  1  0.536241  0.991399  0.406855  1
  O  O87  1  0.744424  0.940446  0.148601  1
  O  O88  1  0.407550  0.940005  0.149805  1
  O  O89  1  0.071897  0.940293  0.150870  1
