# generated using pymatgen
data_Na2Nb3O6
_symmetry_space_group_name_H-M   'P 1'
_cell_length_a   5.16871272
_cell_length_b   5.16871272
_cell_length_c   23.66905586
_cell_angle_alpha   90.00000000
_cell_angle_beta   90.00000000
_cell_angle_gamma   120.00000000
_symmetry_Int_Tables_number   1
_chemical_formula_structural   Na2Nb3O6
_chemical_formula_sum   'Na8 Nb12 O24'
_cell_volume   547.61628662
_cell_formula_units_Z   4
loop_
 _symmetry_equiv_pos_site_id
 _symmetry_equiv_pos_as_xyz
  1  'x, y, z'
loop_
 _atom_site_type_symbol
 _atom_site_label
 _atom_site_symmetry_multiplicity
 _atom_site_fract_x
 _atom_site_fract_y
 _atom_site_fract_z
 _atom_site_occupancy
  Na  Na0  1  0.000000  0.000000  0.750000  1
  Na  Na1  1  0.000000  0.000000  0.250000  1
  Na  Na2  1  0.666667  0.333333  0.500046  1
  Na  Na3  1  0.666667  0.333333  0.750000  1
  Na  Na4  1  0.666667  0.333333  0.999954  1
  Na  Na5  1  0.333333  0.666667  0.000046  1
  Na  Na6  1  0.333333  0.666667  0.250000  1
  Na  Na7  1  0.333333  0.666667  0.499954  1
  Nb  Nb8  1  0.328876  0.995547  0.624984  1
  Nb  Nb9  1  0.333329  0.004453  0.124984  1
  Nb  Nb10  1  0.333329  0.328876  0.375016  1
  Nb  Nb11  1  0.328876  0.333329  0.875016  1
  Nb  Nb12  1  0.671124  0.666671  0.124984  1
  Nb  Nb13  1  0.666671  0.671124  0.624984  1
  Nb  Nb14  1  0.666671  0.995547  0.875016  1
  Nb  Nb15  1  0.671124  0.004453  0.375016  1
  Nb  Nb16  1  0.995547  0.328876  0.124984  1
  Nb  Nb17  1  0.004453  0.333329  0.624984  1
  Nb  Nb18  1  0.995547  0.666671  0.375016  1
  Nb  Nb19  1  0.004453  0.671124  0.875016  1
  O  O20  1  0.334895  0.005116  0.821734  1
  O  O21  1  0.329779  0.994884  0.321734  1
  O  O22  1  0.338452  0.001541  0.928157  1
  O  O23  1  0.329779  0.334895  0.178266  1
  O  O24  1  0.336911  0.338452  0.071843  1
  O  O25  1  0.336911  0.998459  0.428157  1
  O  O26  1  0.334895  0.329779  0.678266  1
  O  O27  1  0.338452  0.336911  0.571843  1
  O  O28  1  0.665105  0.670221  0.321734  1
  O  O29  1  0.670221  0.665105  0.821734  1
  O  O30  1  0.663089  0.001541  0.571843  1
  O  O31  1  0.670221  0.005116  0.678266  1
  O  O32  1  0.665105  0.994884  0.178266  1
  O  O33  1  0.661548  0.998459  0.071843  1
  O  O34  1  0.663089  0.661548  0.928157  1
  O  O35  1  0.661548  0.663089  0.428157  1
  O  O36  1  0.005116  0.334895  0.321734  1
  O  O37  1  0.994884  0.329779  0.821734  1
  O  O38  1  0.998459  0.336911  0.928157  1
  O  O39  1  0.998459  0.661548  0.571843  1
  O  O40  1  0.994884  0.665105  0.678266  1
  O  O41  1  0.001541  0.663089  0.071843  1
  O  O42  1  0.005116  0.670221  0.178266  1
  O  O43  1  0.001541  0.338452  0.428157  1
