# generated using pymatgen
data_MnOF
_symmetry_space_group_name_H-M   'P 1'
_cell_length_a   4.59094891
_cell_length_b   5.71134734
_cell_length_c   10.36108018
_cell_angle_alpha   89.84942990
_cell_angle_beta   89.38437136
_cell_angle_gamma   89.78635465
_symmetry_Int_Tables_number   1
_chemical_formula_structural   MnOF
_chemical_formula_sum   'Mn8 O8 F8'
_cell_volume   271.65426239
_cell_formula_units_Z   8
loop_
 _symmetry_equiv_pos_site_id
 _symmetry_equiv_pos_as_xyz
  1  'x, y, z'
loop_
 _atom_site_type_symbol
 _atom_site_label
 _atom_site_symmetry_multiplicity
 _atom_site_fract_x
 _atom_site_fract_y
 _atom_site_fract_z
 _atom_site_occupancy
  Mn  Mn0  1  0.029722  0.166612  0.616445  1
  Mn  Mn1  1  0.002593  0.847783  0.364151  1
  Mn  Mn2  1  0.003213  0.149954  0.113274  1
  Mn  Mn3  1  0.038383  0.862356  0.864384  1
  Mn  Mn4  1  0.500890  0.345128  0.884015  1
  Mn  Mn5  1  0.507355  0.344994  0.387382  1
  Mn  Mn6  1  0.511529  0.647666  0.138893  1
  Mn  Mn7  1  0.494726  0.638502  0.632047  1
  O  O8  1  0.220480  0.112162  0.452503  1
  O  O9  1  0.225782  0.114914  0.952416  1
  O  O10  1  0.216335  0.882166  0.201204  1
  O  O11  1  0.235967  0.893054  0.702142  1
  O  O12  1  0.285588  0.404155  0.727692  1
  O  O13  1  0.719636  0.376977  0.045624  1
  O  O14  1  0.718305  0.614550  0.298206  1
  O  O15  1  0.726814  0.383345  0.545386  1
  F  F16  1  0.255337  0.376051  0.229066  1
  F  F17  1  0.239465  0.609592  0.467779  1
  F  F18  1  0.269934  0.619735  0.979096  1
  F  F19  1  0.759007  0.620892  0.803753  1
  F  F20  1  0.751423  0.114101  0.271222  1
  F  F21  1  0.764539  0.875932  0.016401  1
  F  F22  1  0.772731  0.128986  0.774706  1
  F  F23  1  0.750243  0.870391  0.532217  1
