# generated using pymatgen
data_Cr3S4
_symmetry_space_group_name_H-M   'P 1'
_cell_length_a   5.94757195
_cell_length_b   3.44326928
_cell_length_c   11.09505703
_cell_angle_alpha   90.00000000
_cell_angle_beta   91.23413310
_cell_angle_gamma   90.00000000
_symmetry_Int_Tables_number   1
_chemical_formula_structural   Cr3S4
_chemical_formula_sum   'Cr6 S8'
_cell_volume   227.16398381
_cell_formula_units_Z   2
loop_
 _symmetry_equiv_pos_site_id
 _symmetry_equiv_pos_as_xyz
  1  'x, y, z'
loop_
 _atom_site_type_symbol
 _atom_site_label
 _atom_site_symmetry_multiplicity
 _atom_site_fract_x
 _atom_site_fract_y
 _atom_site_fract_z
 _atom_site_occupancy
  Cr  Cr0  1  0.252643  0.250000  0.248151  1
  Cr  Cr1  1  0.747357  0.750000  0.751849  1
  Cr  Cr2  1  0.782050  0.750000  0.486717  1
  Cr  Cr3  1  0.264617  0.250000  0.989713  1
  Cr  Cr4  1  0.217950  0.250000  0.513283  1
  Cr  Cr5  1  0.735383  0.750000  0.010287  1
  S  S6  1  0.918577  0.250000  0.366294  1
  S  S7  1  0.418427  0.750000  0.873339  1
  S  S8  1  0.407284  0.750000  0.385517  1
  S  S9  1  0.909218  0.250000  0.884103  1
  S  S10  1  0.592716  0.250000  0.614483  1
  S  S11  1  0.090782  0.750000  0.115897  1
  S  S12  1  0.081423  0.750000  0.633706  1
  S  S13  1  0.581573  0.250000  0.126661  1
