# generated using pymatgen
data_Lu2MgGe2
_symmetry_space_group_name_H-M   'P 1'
_cell_length_a   7.14528133
_cell_length_b   7.14528133
_cell_length_c   4.17127893
_cell_angle_alpha   90.00000000
_cell_angle_beta   90.00000000
_cell_angle_gamma   90.00000000
_symmetry_Int_Tables_number   1
_chemical_formula_structural   Lu2MgGe2
_chemical_formula_sum   'Lu4 Mg2 Ge4'
_cell_volume   212.96483467
_cell_formula_units_Z   2
loop_
 _symmetry_equiv_pos_site_id
 _symmetry_equiv_pos_as_xyz
  1  'x, y, z'
loop_
 _atom_site_type_symbol
 _atom_site_label
 _atom_site_symmetry_multiplicity
 _atom_site_fract_x
 _atom_site_fract_y
 _atom_site_fract_z
 _atom_site_occupancy
  Lu  Lu0  1  0.676897  0.176897  0.500000  1
  Lu  Lu1  1  0.323103  0.823103  0.500000  1
  Lu  Lu2  1  0.176897  0.323103  0.500000  1
  Lu  Lu3  1  0.823103  0.676897  0.500000  1
  Mg  Mg4  1  0.500000  0.500000  0.000000  1
  Mg  Mg5  1  0.000000  0.000000  0.000000  1
  Ge  Ge6  1  0.874964  0.374964  0.000000  1
  Ge  Ge7  1  0.125036  0.625036  0.000000  1
  Ge  Ge8  1  0.374964  0.125036  0.000000  1
  Ge  Ge9  1  0.625036  0.874964  0.000000  1
