# generated using pymatgen
data_HoAsPd
_symmetry_space_group_name_H-M   'P 1'
_cell_length_a   4.12900367
_cell_length_b   7.04707088
_cell_length_c   7.95476868
_cell_angle_alpha   90.00000000
_cell_angle_beta   90.00000000
_cell_angle_gamma   90.00000000
_symmetry_Int_Tables_number   1
_chemical_formula_structural   HoAsPd
_chemical_formula_sum   'Ho4 As4 Pd4'
_cell_volume   231.46293924
_cell_formula_units_Z   4
loop_
 _symmetry_equiv_pos_site_id
 _symmetry_equiv_pos_as_xyz
  1  'x, y, z'
loop_
 _atom_site_type_symbol
 _atom_site_label
 _atom_site_symmetry_multiplicity
 _atom_site_fract_x
 _atom_site_fract_y
 _atom_site_fract_z
 _atom_site_occupancy
  Ho  Ho0  1  0.250000  0.031124  0.191055  1
  Ho  Ho1  1  0.750000  0.968876  0.808945  1
  Ho  Ho2  1  0.250000  0.531124  0.308945  1
  Ho  Ho3  1  0.750000  0.468876  0.691055  1
  As  As4  1  0.250000  0.748471  0.620963  1
  As  As5  1  0.750000  0.251529  0.379037  1
  As  As6  1  0.250000  0.248471  0.879037  1
  As  As7  1  0.750000  0.751529  0.120963  1
  Pd  Pd8  1  0.750000  0.357063  0.062267  1
  Pd  Pd9  1  0.250000  0.642937  0.937733  1
  Pd  Pd10  1  0.750000  0.857063  0.437733  1
  Pd  Pd11  1  0.250000  0.142937  0.562267  1
