# generated using pymatgen
data_KSc(BH4)4
_symmetry_space_group_name_H-M   'P 1'
_cell_length_a   8.30527282
_cell_length_b   9.27154086
_cell_length_c   12.35313310
_cell_angle_alpha   90.00000000
_cell_angle_beta   90.00000000
_cell_angle_gamma   90.00000000
_symmetry_Int_Tables_number   1
_chemical_formula_structural   KSc(BH4)4
_chemical_formula_sum   'K4 Sc4 B16 H64'
_cell_volume   951.22430944
_cell_formula_units_Z   4
loop_
 _symmetry_equiv_pos_site_id
 _symmetry_equiv_pos_as_xyz
  1  'x, y, z'
loop_
 _atom_site_type_symbol
 _atom_site_label
 _atom_site_symmetry_multiplicity
 _atom_site_fract_x
 _atom_site_fract_y
 _atom_site_fract_z
 _atom_site_occupancy
  K  K0  1  0.250000  0.637036  0.110745  1
  K  K1  1  0.750000  0.137036  0.389255  1
  K  K2  1  0.250000  0.862964  0.610745  1
  K  K3  1  0.750000  0.362964  0.889255  1
  Sc  Sc4  1  0.250000  0.171544  0.055143  1
  Sc  Sc5  1  0.750000  0.671544  0.444857  1
  Sc  Sc6  1  0.250000  0.328456  0.555143  1
  Sc  Sc7  1  0.750000  0.828456  0.944857  1
  B  B8  1  0.250000  0.981691  0.177521  1
  B  B9  1  0.750000  0.481691  0.322479  1
  B  B10  1  0.250000  0.518309  0.677521  1
  B  B11  1  0.750000  0.018309  0.822479  1
  B  B12  1  0.250000  0.420026  0.382075  1
  B  B13  1  0.750000  0.920026  0.117925  1
  B  B14  1  0.250000  0.079974  0.882075  1
  B  B15  1  0.750000  0.579974  0.617925  1
  B  B16  1  0.021295  0.317160  0.078889  1
  B  B17  1  0.978705  0.817160  0.421111  1
  B  B18  1  0.478705  0.182840  0.578889  1
  B  B19  1  0.521295  0.682840  0.921111  1
  B  B20  1  0.978705  0.682840  0.921111  1
  B  B21  1  0.021295  0.182840  0.578889  1
  B  B22  1  0.521295  0.817160  0.421111  1
  B  B23  1  0.478705  0.317160  0.078889  1
  H  H24  1  0.979649  0.193839  0.053527  1
  H  H25  1  0.020351  0.693839  0.446473  1
  H  H26  1  0.520351  0.306161  0.553527  1
  H  H27  1  0.479649  0.806161  0.946473  1
  H  H28  1  0.020351  0.806161  0.946473  1
  H  H29  1  0.979649  0.306161  0.553527  1
  H  H30  1  0.479649  0.693839  0.446473  1
  H  H31  1  0.520351  0.193839  0.053527  1
  H  H32  1  0.100215  0.307782  0.163322  1
  H  H33  1  0.899785  0.807782  0.336678  1
  H  H34  1  0.399785  0.192218  0.663322  1
  H  H35  1  0.600215  0.692218  0.836678  1
  H  H36  1  0.899785  0.692218  0.836678  1
  H  H37  1  0.100215  0.192218  0.663322  1
  H  H38  1  0.600215  0.807782  0.336678  1
  H  H39  1  0.399785  0.307782  0.163322  1
  H  H40  1  0.250000  0.879171  0.237359  1
  H  H41  1  0.750000  0.379171  0.262641  1
  H  H42  1  0.250000  0.620829  0.737359  1
  H  H43  1  0.750000  0.120829  0.762641  1
  H  H44  1  0.370047  0.983217  0.117921  1
  H  H45  1  0.629953  0.483217  0.382079  1
  H  H46  1  0.129953  0.516783  0.617921  1
  H  H47  1  0.870047  0.016783  0.882079  1
  H  H48  1  0.629953  0.016783  0.882079  1
  H  H49  1  0.370047  0.516783  0.617921  1
  H  H50  1  0.870047  0.483217  0.382079  1
  H  H51  1  0.129953  0.983217  0.117921  1
  H  H52  1  0.250000  0.096370  0.228319  1
  H  H53  1  0.750000  0.596370  0.271681  1
  H  H54  1  0.250000  0.403630  0.728319  1
  H  H55  1  0.750000  0.903630  0.771681  1
  H  H56  1  0.369422  0.455801  0.435710  1
  H  H57  1  0.630578  0.955801  0.064290  1
  H  H58  1  0.130578  0.044199  0.935710  1
  H  H59  1  0.869422  0.544199  0.564290  1
  H  H60  1  0.630578  0.544199  0.564290  1
  H  H61  1  0.369422  0.044199  0.935710  1
  H  H62  1  0.869422  0.955801  0.064290  1
  H  H63  1  0.130578  0.455801  0.435710  1
  H  H64  1  0.907680  0.396859  0.091022  1
  H  H65  1  0.092320  0.896859  0.408978  1
  H  H66  1  0.592320  0.103141  0.591022  1
  H  H67  1  0.407680  0.603141  0.908978  1
  H  H68  1  0.092320  0.603141  0.908978  1
  H  H69  1  0.907680  0.103141  0.591022  1
  H  H70  1  0.407680  0.896859  0.408978  1
  H  H71  1  0.592320  0.396859  0.091022  1
  H  H72  1  0.250000  0.286339  0.378722  1
  H  H73  1  0.750000  0.786339  0.121278  1
  H  H74  1  0.250000  0.213661  0.878722  1
  H  H75  1  0.750000  0.713661  0.621278  1
  H  H76  1  0.250000  0.474251  0.293991  1
  H  H77  1  0.750000  0.974251  0.206009  1
  H  H78  1  0.250000  0.025749  0.793991  1
  H  H79  1  0.750000  0.525749  0.706009  1
  H  H80  1  0.111981  0.361344  0.006574  1
  H  H81  1  0.888019  0.861344  0.493426  1
  H  H82  1  0.388019  0.138656  0.506574  1
  H  H83  1  0.611981  0.638656  0.993426  1
  H  H84  1  0.888019  0.638656  0.993426  1
  H  H85  1  0.111981  0.138656  0.506574  1
  H  H86  1  0.611981  0.861344  0.493426  1
  H  H87  1  0.388019  0.361344  0.006574  1
