# generated using pymatgen
data_LiNi(PO3)4
_symmetry_space_group_name_H-M   'P 1'
_cell_length_a   5.07551181
_cell_length_b   13.62571015
_cell_length_c   7.08718360
_cell_angle_alpha   90.00000000
_cell_angle_beta   97.54055029
_cell_angle_gamma   90.00000000
_symmetry_Int_Tables_number   1
_chemical_formula_structural   LiNi(PO3)4
_chemical_formula_sum   'Li2 Ni2 P8 O24'
_cell_volume   485.89302245
_cell_formula_units_Z   2
loop_
 _symmetry_equiv_pos_site_id
 _symmetry_equiv_pos_as_xyz
  1  'x, y, z'
loop_
 _atom_site_type_symbol
 _atom_site_label
 _atom_site_symmetry_multiplicity
 _atom_site_fract_x
 _atom_site_fract_y
 _atom_site_fract_z
 _atom_site_occupancy
  Li  Li0  1  0.593472  0.009431  0.130266  1
  Li  Li1  1  0.406528  0.509431  0.869734  1
  Ni  Ni2  1  0.511203  0.236827  0.508726  1
  Ni  Ni3  1  0.488797  0.736827  0.491274  1
  P  P4  1  0.020207  0.096472  0.546935  1
  P  P5  1  0.002008  0.376388  0.462796  1
  P  P6  1  0.147474  0.671505  0.100642  1
  P  P7  1  0.226786  0.321519  0.116226  1
  P  P8  1  0.773214  0.821519  0.883774  1
  P  P9  1  0.852526  0.171505  0.899358  1
  P  P10  1  0.997992  0.876388  0.537204  1
  P  P11  1  0.979793  0.596472  0.453065  1
  O  O12  1  0.046192  0.262463  0.952191  1
  O  O13  1  0.029095  0.103869  0.774471  1
  O  O14  1  0.999402  0.864902  0.762549  1
  O  O15  1  0.197610  0.614065  0.930764  1
  O  O16  1  0.100721  0.488560  0.502999  1
  O  O17  1  0.182986  0.667400  0.550986  1
  O  O18  1  0.214432  0.312905  0.572820  1
  O  O19  1  0.294947  0.103178  0.492047  1
  O  O20  1  0.273909  0.867307  0.484735  1
  O  O21  1  0.399396  0.249116  0.238814  1
  O  O22  1  0.392158  0.710653  0.224300  1
  O  O23  1  0.355859  0.402592  0.021998  1
  O  O24  1  0.644141  0.902592  0.978002  1
  O  O25  1  0.607842  0.210653  0.775700  1
  O  O26  1  0.600604  0.749116  0.761186  1
  O  O27  1  0.726091  0.367307  0.515265  1
  O  O28  1  0.705053  0.603178  0.507953  1
  O  O29  1  0.785568  0.812905  0.427180  1
  O  O30  1  0.817014  0.167400  0.449014  1
  O  O31  1  0.899279  0.988560  0.497001  1
  O  O32  1  0.802390  0.114065  0.069236  1
  O  O33  1  0.000598  0.364902  0.237451  1
  O  O34  1  0.970905  0.603869  0.225529  1
  O  O35  1  0.953808  0.762463  0.047809  1
