# generated using pymatgen
data_Ca2SnS4
_symmetry_space_group_name_H-M   'P 1'
_cell_length_a   7.91522405
_cell_length_b   8.32653889
_cell_length_c   11.06532616
_cell_angle_alpha   90.00000000
_cell_angle_beta   111.87521498
_cell_angle_gamma   90.00000000
_symmetry_Int_Tables_number   1
_chemical_formula_structural   Ca2SnS4
_chemical_formula_sum   'Ca8 Sn4 S16'
_cell_volume   676.76635487
_cell_formula_units_Z   4
loop_
 _symmetry_equiv_pos_site_id
 _symmetry_equiv_pos_as_xyz
  1  'x, y, z'
loop_
 _atom_site_type_symbol
 _atom_site_label
 _atom_site_symmetry_multiplicity
 _atom_site_fract_x
 _atom_site_fract_y
 _atom_site_fract_z
 _atom_site_occupancy
  Ca  Ca0  1  0.966345  0.687565  0.147293  1
  Ca  Ca1  1  0.033655  0.187565  0.352707  1
  Ca  Ca2  1  0.033655  0.312435  0.852707  1
  Ca  Ca3  1  0.966345  0.812435  0.647293  1
  Ca  Ca4  1  0.561865  0.626396  0.327663  1
  Ca  Ca5  1  0.438135  0.126396  0.172337  1
  Ca  Ca6  1  0.438135  0.373604  0.672337  1
  Ca  Ca7  1  0.561865  0.873604  0.827663  1
  Sn  Sn8  1  0.302688  0.681381  0.984534  1
  Sn  Sn9  1  0.697312  0.181381  0.515466  1
  Sn  Sn10  1  0.697312  0.318619  0.015466  1
  Sn  Sn11  1  0.302688  0.818619  0.484534  1
  S  S12  1  0.759554  0.527988  0.888675  1
  S  S13  1  0.240446  0.027988  0.611325  1
  S  S14  1  0.240446  0.472012  0.111325  1
  S  S15  1  0.759554  0.972012  0.388675  1
  S  S16  1  0.268333  0.607171  0.765989  1
  S  S17  1  0.731667  0.107171  0.734011  1
  S  S18  1  0.731667  0.392829  0.234011  1
  S  S19  1  0.268333  0.892829  0.265989  1
  S  S20  1  0.065204  0.626464  0.425925  1
  S  S21  1  0.934796  0.126464  0.074075  1
  S  S22  1  0.934796  0.373536  0.574075  1
  S  S23  1  0.065204  0.873536  0.925925  1
  S  S24  1  0.593536  0.687288  0.595171  1
  S  S25  1  0.406464  0.187288  0.904829  1
  S  S26  1  0.406464  0.312712  0.404829  1
  S  S27  1  0.593536  0.812712  0.095171  1
