# generated using pymatgen
data_Li3FePCO7
_symmetry_space_group_name_H-M   'P 1'
_cell_length_a   5.28731284
_cell_length_b   6.53186500
_cell_length_c   8.33234467
_cell_angle_alpha   90.00000000
_cell_angle_beta   90.00000000
_cell_angle_gamma   90.00000000
_symmetry_Int_Tables_number   1
_chemical_formula_structural   Li3FePCO7
_chemical_formula_sum   'Li6 Fe2 P2 C2 O14'
_cell_volume   287.76596935
_cell_formula_units_Z   2
loop_
 _symmetry_equiv_pos_site_id
 _symmetry_equiv_pos_as_xyz
  1  'x, y, z'
loop_
 _atom_site_type_symbol
 _atom_site_label
 _atom_site_symmetry_multiplicity
 _atom_site_fract_x
 _atom_site_fract_y
 _atom_site_fract_z
 _atom_site_occupancy
  Li  Li0  1  0.399842  0.267711  0.718070  1
  Li  Li1  1  0.399842  0.732289  0.718070  1
  Li  Li2  1  0.968276  0.500000  0.922778  1
  Li  Li3  1  0.468276  0.000000  0.077222  1
  Li  Li4  1  0.899842  0.767711  0.281930  1
  Li  Li5  1  0.899842  0.232289  0.281930  1
  Fe  Fe6  1  0.478052  0.500000  0.323328  1
  Fe  Fe7  1  0.978052  0.000000  0.676672  1
  P  P8  1  0.531487  0.000000  0.409992  1
  P  P9  1  0.031487  0.500000  0.590008  1
  C  C10  1  0.989858  0.000000  0.987458  1
  C  C11  1  0.489858  0.500000  0.012542  1
  O  O12  1  0.988468  0.312135  0.701921  1
  O  O13  1  0.988468  0.687865  0.701921  1
  O  O14  1  0.200999  0.000000  0.904167  1
  O  O15  1  0.774334  0.000000  0.911579  1
  O  O16  1  0.503234  0.500000  0.858351  1
  O  O17  1  0.003234  0.000000  0.141649  1
  O  O18  1  0.274334  0.500000  0.088421  1
  O  O19  1  0.700999  0.500000  0.095833  1
  O  O20  1  0.488468  0.187865  0.298079  1
  O  O21  1  0.488468  0.812135  0.298079  1
  O  O22  1  0.320469  0.500000  0.548617  1
  O  O23  1  0.874819  0.500000  0.434102  1
  O  O24  1  0.374819  0.000000  0.565898  1
  O  O25  1  0.820469  0.000000  0.451383  1
