# generated using pymatgen
data_Cu2P2O7
_symmetry_space_group_name_H-M   'P 1'
_cell_length_a   5.43781986
_cell_length_b   5.43781986
_cell_length_c   4.66546711
_cell_angle_alpha   76.38834483
_cell_angle_beta   103.61165517
_cell_angle_gamma   81.74961424
_symmetry_Int_Tables_number   1
_chemical_formula_structural   Cu2P2O7
_chemical_formula_sum   'Cu2 P2 O7'
_cell_volume   127.39542326
_cell_formula_units_Z   1
loop_
 _symmetry_equiv_pos_site_id
 _symmetry_equiv_pos_as_xyz
  1  'x, y, z'
loop_
 _atom_site_type_symbol
 _atom_site_label
 _atom_site_symmetry_multiplicity
 _atom_site_fract_x
 _atom_site_fract_y
 _atom_site_fract_z
 _atom_site_occupancy
  Cu  Cu0  1  0.312066  0.312066  0.500000  1
  Cu  Cu1  1  0.687934  0.687934  0.500000  1
  P  P2  1  0.195129  0.804871  0.909604  1
  P  P3  1  0.804871  0.195129  0.090396  1
  O  O4  1  0.956645  0.352430  0.268971  1
  O  O5  1  0.352430  0.956645  0.731029  1
  O  O6  1  0.043355  0.647570  0.731029  1
  O  O7  1  0.647570  0.043355  0.268971  1
  O  O8  1  0.000000  0.000000  0.000000  1
  O  O9  1  0.622822  0.377178  0.778888  1
  O  O10  1  0.377178  0.622822  0.221112  1
