# generated using pymatgen
data_TcRu3
_symmetry_space_group_name_H-M   'P 1'
_cell_length_a   5.47541282
_cell_length_b   5.47541282
_cell_length_c   4.33006838
_cell_angle_alpha   90.00000000
_cell_angle_beta   90.00000000
_cell_angle_gamma   120.00000000
_symmetry_Int_Tables_number   1
_chemical_formula_structural   TcRu3
_chemical_formula_sum   'Tc2 Ru6'
_cell_volume   112.42402324
_cell_formula_units_Z   2
loop_
 _symmetry_equiv_pos_site_id
 _symmetry_equiv_pos_as_xyz
  1  'x, y, z'
loop_
 _atom_site_type_symbol
 _atom_site_label
 _atom_site_symmetry_multiplicity
 _atom_site_fract_x
 _atom_site_fract_y
 _atom_site_fract_z
 _atom_site_occupancy
  Tc  Tc0  1  0.333333  0.666667  0.750000  1
  Tc  Tc1  1  0.666667  0.333333  0.250000  1
  Ru  Ru2  1  0.167263  0.334527  0.250000  1
  Ru  Ru3  1  0.665473  0.832737  0.250000  1
  Ru  Ru4  1  0.167263  0.832737  0.250000  1
  Ru  Ru5  1  0.832737  0.665473  0.750000  1
  Ru  Ru6  1  0.334527  0.167263  0.750000  1
  Ru  Ru7  1  0.832737  0.167263  0.750000  1
