# generated using pymatgen
data_AlCuTe2
_symmetry_space_group_name_H-M   'P 1'
_cell_length_a   7.42081456
_cell_length_b   7.42081456
_cell_length_c   7.42081456
_cell_angle_alpha   131.59386960
_cell_angle_beta   131.59386960
_cell_angle_gamma   70.87122701
_symmetry_Int_Tables_number   1
_chemical_formula_structural   AlCuTe2
_chemical_formula_sum   'Al2 Cu2 Te4'
_cell_volume   223.84968957
_cell_formula_units_Z   2
loop_
 _symmetry_equiv_pos_site_id
 _symmetry_equiv_pos_as_xyz
  1  'x, y, z'
loop_
 _atom_site_type_symbol
 _atom_site_label
 _atom_site_symmetry_multiplicity
 _atom_site_fract_x
 _atom_site_fract_y
 _atom_site_fract_z
 _atom_site_occupancy
  Al  Al0  1  0.500000  0.500000  0.000000  1
  Al  Al1  1  0.250000  0.750000  0.500000  1
  Cu  Cu2  1  0.000000  0.000000  0.000000  1
  Cu  Cu3  1  0.750000  0.250000  0.500000  1
  Te  Te4  1  0.116213  0.125000  0.491213  1
  Te  Te5  1  0.875000  0.366213  0.991213  1
  Te  Te6  1  0.375000  0.883787  0.008787  1
  Te  Te7  1  0.633787  0.625000  0.508787  1
