# generated using pymatgen
data_Ba2InBiS5
_symmetry_space_group_name_H-M   'P 1'
_cell_length_a   9.55251431
_cell_length_b   9.55251431
_cell_length_c   12.96383559
_cell_angle_alpha   90.00000000
_cell_angle_beta   90.00000000
_cell_angle_gamma   154.52572929
_symmetry_Int_Tables_number   1
_chemical_formula_structural   Ba2InBiS5
_chemical_formula_sum   'Ba4 In2 Bi2 S10'
_cell_volume   508.79653482
_cell_formula_units_Z   2
loop_
 _symmetry_equiv_pos_site_id
 _symmetry_equiv_pos_as_xyz
  1  'x, y, z'
loop_
 _atom_site_type_symbol
 _atom_site_label
 _atom_site_symmetry_multiplicity
 _atom_site_fract_x
 _atom_site_fract_y
 _atom_site_fract_z
 _atom_site_occupancy
  Ba  Ba0  1  0.129535  0.870465  0.189675  1
  Ba  Ba1  1  0.887241  0.112759  0.315568  1
  Ba  Ba2  1  0.870465  0.129535  0.689675  1
  Ba  Ba3  1  0.112759  0.887241  0.815568  1
  In  In4  1  0.443819  0.556181  0.055702  1
  In  In5  1  0.556181  0.443819  0.555702  1
  Bi  Bi6  1  0.216930  0.783070  0.478097  1
  Bi  Bi7  1  0.783070  0.216930  0.978097  1
  S  S8  1  0.642899  0.357101  0.999682  1
  S  S9  1  0.315894  0.684106  0.130661  1
  S  S10  1  0.503967  0.496033  0.223614  1
  S  S11  1  0.716036  0.283964  0.334805  1
  S  S12  1  0.045335  0.954665  0.448226  1
  S  S13  1  0.357101  0.642899  0.499681  1
  S  S14  1  0.684106  0.315894  0.630661  1
  S  S15  1  0.496033  0.503967  0.723614  1
  S  S16  1  0.283964  0.716036  0.834805  1
  S  S17  1  0.954665  0.045335  0.948226  1
