# generated using pymatgen
data_Li4CoNi3O8
_symmetry_space_group_name_H-M   'P 1'
_cell_length_a   5.78483702
_cell_length_b   5.78483702
_cell_length_c   5.82868840
_cell_angle_alpha   59.86735878
_cell_angle_beta   120.13264122
_cell_angle_gamma   119.53632799
_symmetry_Int_Tables_number   1
_chemical_formula_structural   Li4CoNi3O8
_chemical_formula_sum   'Li4 Co1 Ni3 O8'
_cell_volume   138.12015668
_cell_formula_units_Z   1
loop_
 _symmetry_equiv_pos_site_id
 _symmetry_equiv_pos_as_xyz
  1  'x, y, z'
loop_
 _atom_site_type_symbol
 _atom_site_label
 _atom_site_symmetry_multiplicity
 _atom_site_fract_x
 _atom_site_fract_y
 _atom_site_fract_z
 _atom_site_occupancy
  Li  Li0  1  0.500000  0.500000  0.000000  1
  Li  Li1  1  0.500000  0.000000  0.500000  1
  Li  Li2  1  0.000000  0.000000  0.000000  1
  Li  Li3  1  0.000000  0.500000  0.500000  1
  Co  Co4  1  0.000000  0.000000  0.500000  1
  Ni  Ni5  1  0.500000  0.500000  0.500000  1
  Ni  Ni6  1  0.500000  0.000000  0.000000  1
  Ni  Ni7  1  0.000000  0.500000  0.000000  1
  O  O8  1  0.779611  0.757845  0.741113  1
  O  O9  1  0.761785  0.238215  0.268940  1
  O  O10  1  0.242155  0.220389  0.741113  1
  O  O11  1  0.253044  0.746956  0.217322  1
  O  O12  1  0.746956  0.253044  0.782678  1
  O  O13  1  0.757845  0.779611  0.258887  1
  O  O14  1  0.238215  0.761785  0.731060  1
  O  O15  1  0.220389  0.242155  0.258887  1
