# generated using pymatgen
data_Mn6O7F5
_symmetry_space_group_name_H-M   'P 1'
_cell_length_a   5.60879675
_cell_length_b   5.60879675
_cell_length_c   7.93155734
_cell_angle_alpha   68.06828993
_cell_angle_beta   111.93171007
_cell_angle_gamma   111.89452288
_symmetry_Int_Tables_number   1
_chemical_formula_structural   Mn6O7F5
_chemical_formula_sum   'Mn6 O7 F5'
_cell_volume   206.65882779
_cell_formula_units_Z   1
loop_
 _symmetry_equiv_pos_site_id
 _symmetry_equiv_pos_as_xyz
  1  'x, y, z'
loop_
 _atom_site_type_symbol
 _atom_site_label
 _atom_site_symmetry_multiplicity
 _atom_site_fract_x
 _atom_site_fract_y
 _atom_site_fract_z
 _atom_site_occupancy
  Mn  Mn0  1  0.333580  0.666420  0.834147  1
  Mn  Mn1  1  0.663289  0.336711  0.654712  1
  Mn  Mn2  1  0.341760  0.658240  0.327374  1
  Mn  Mn3  1  0.656379  0.343621  0.189718  1
  Mn  Mn4  1  0.002162  0.997838  0.494670  1
  Mn  Mn5  1  0.996222  0.003778  0.003592  1
  O  O6  1  0.969281  0.636796  0.666225  1
  O  O7  1  0.639758  0.972197  0.330072  1
  O  O8  1  0.565795  0.434205  0.382471  1
  O  O9  1  0.027803  0.360242  0.330072  1
  O  O10  1  0.363204  0.030719  0.666225  1
  O  O11  1  0.695907  0.696522  0.004695  1
  O  O12  1  0.303478  0.304093  0.004695  1
  F  F13  1  0.117657  0.882343  0.298931  1
  F  F14  1  0.447873  0.552127  0.638923  1
  F  F15  1  0.767671  0.232329  0.946483  1
  F  F16  1  0.888346  0.111654  0.699810  1
  F  F17  1  0.219837  0.780163  0.027186  1
