# generated using pymatgen
data_Co(IO3)2
_symmetry_space_group_name_H-M   'P 1'
_cell_length_a   6.68872650
_cell_length_b   11.20793988
_cell_length_c   8.06885843
_cell_angle_alpha   90.00000000
_cell_angle_beta   117.35387230
_cell_angle_gamma   90.00000000
_symmetry_Int_Tables_number   1
_chemical_formula_structural   Co(IO3)2
_chemical_formula_sum   'Co4 I8 O24'
_cell_volume   537.26067335
_cell_formula_units_Z   4
loop_
 _symmetry_equiv_pos_site_id
 _symmetry_equiv_pos_as_xyz
  1  'x, y, z'
loop_
 _atom_site_type_symbol
 _atom_site_label
 _atom_site_symmetry_multiplicity
 _atom_site_fract_x
 _atom_site_fract_y
 _atom_site_fract_z
 _atom_site_occupancy
  Co  Co0  1  0.157755  0.898752  0.973024  1
  Co  Co1  1  0.842245  0.398752  0.526976  1
  Co  Co2  1  0.157755  0.601248  0.473024  1
  Co  Co3  1  0.842245  0.101248  0.026976  1
  I  I4  1  0.353741  0.206883  0.069819  1
  I  I5  1  0.646259  0.706883  0.430181  1
  I  I6  1  0.785484  0.080622  0.538540  1
  I  I7  1  0.214516  0.580622  0.961460  1
  I  I8  1  0.785484  0.419378  0.038540  1
  I  I9  1  0.214516  0.919378  0.461460  1
  I  I10  1  0.353741  0.293117  0.569819  1
  I  I11  1  0.646259  0.793117  0.930181  1
  O  O12  1  0.145342  0.082770  0.013560  1
  O  O13  1  0.350665  0.894519  0.309022  1
  O  O14  1  0.416828  0.611254  0.411266  1
  O  O15  1  0.450345  0.212895  0.321884  1
  O  O16  1  0.549655  0.712895  0.178116  1
  O  O17  1  0.040306  0.718159  0.900003  1
  O  O18  1  0.010893  0.462273  0.827446  1
  O  O19  1  0.583172  0.111254  0.088734  1
  O  O20  1  0.989107  0.962273  0.672554  1
  O  O21  1  0.959694  0.218159  0.599997  1
  O  O22  1  0.649335  0.394519  0.190978  1
  O  O23  1  0.854658  0.582770  0.486440  1
  O  O24  1  0.145342  0.417230  0.513560  1
  O  O25  1  0.350665  0.605481  0.809022  1
  O  O26  1  0.040306  0.781841  0.400003  1
  O  O27  1  0.010893  0.037727  0.327446  1
  O  O28  1  0.416828  0.888746  0.911266  1
  O  O29  1  0.989107  0.537727  0.172554  1
  O  O30  1  0.959694  0.281841  0.099997  1
  O  O31  1  0.450345  0.287105  0.821884  1
  O  O32  1  0.549655  0.787105  0.678116  1
  O  O33  1  0.583172  0.388746  0.588734  1
  O  O34  1  0.649335  0.105481  0.690978  1
  O  O35  1  0.854658  0.917230  0.986440  1
