# generated using pymatgen
data_Li6CuS4
_symmetry_space_group_name_H-M   'P 1'
_cell_length_a   7.68758103
_cell_length_b   7.68758103
_cell_length_c   7.68758103
_cell_angle_alpha   152.90098804
_cell_angle_beta   124.24748642
_cell_angle_gamma   63.06436172
_symmetry_Int_Tables_number   1
_chemical_formula_structural   Li6CuS4
_chemical_formula_sum   'Li6 Cu1 S4'
_cell_volume   169.68024220
_cell_formula_units_Z   1
loop_
 _symmetry_equiv_pos_site_id
 _symmetry_equiv_pos_as_xyz
  1  'x, y, z'
loop_
 _atom_site_type_symbol
 _atom_site_label
 _atom_site_symmetry_multiplicity
 _atom_site_fract_x
 _atom_site_fract_y
 _atom_site_fract_z
 _atom_site_occupancy
  Li  Li0  1  0.170577  0.880492  0.290085  1
  Li  Li1  1  0.108243  0.643583  0.464660  1
  Li  Li2  1  0.770323  0.687441  0.082882  1
  Li  Li3  1  0.395442  0.312559  0.082882  1
  Li  Li4  1  0.821077  0.356417  0.464660  1
  Li  Li5  1  0.409592  0.119508  0.290085  1
  Cu  Cu6  1  0.718496  0.000000  0.718496  1
  S  S7  1  0.025330  0.000000  0.025330  1
  S  S8  1  0.018417  0.253342  0.765076  1
  S  S9  1  0.511734  0.746658  0.765076  1
  S  S10  1  0.531948  0.500000  0.031948  1
