# generated using pymatgen
data_Li17Cr2O12
_symmetry_space_group_name_H-M   'P 1'
_cell_length_a   5.47705082
_cell_length_b   5.93237874
_cell_length_c   8.07882794
_cell_angle_alpha   96.64678851
_cell_angle_beta   90.02954463
_cell_angle_gamma   90.29982886
_symmetry_Int_Tables_number   1
_chemical_formula_structural   Li17Cr2O12
_chemical_formula_sum   'Li17 Cr2 O12'
_cell_volume   260.72870288
_cell_formula_units_Z   1
loop_
 _symmetry_equiv_pos_site_id
 _symmetry_equiv_pos_as_xyz
  1  'x, y, z'
loop_
 _atom_site_type_symbol
 _atom_site_label
 _atom_site_symmetry_multiplicity
 _atom_site_fract_x
 _atom_site_fract_y
 _atom_site_fract_z
 _atom_site_occupancy
  Li  Li0  1  0.994243  0.320854  0.841432  1
  Li  Li1  1  0.864722  0.729604  0.377923  1
  Li  Li2  1  0.823078  0.421852  0.079087  1
  Li  Li3  1  0.797608  0.043429  0.698668  1
  Li  Li4  1  0.670485  0.085346  0.428731  1
  Li  Li5  1  0.654440  0.458962  0.789672  1
  Li  Li6  1  0.646338  0.776741  0.128919  1
  Li  Li7  1  0.486906  0.174679  0.157048  1
  Li  Li8  1  0.514361  0.830871  0.851081  1
  Li  Li9  1  0.373853  0.217536  0.875343  1
  Li  Li10  1  0.328676  0.914319  0.570124  1
  Li  Li11  1  0.309007  0.558560  0.204442  1
  Li  Li12  1  0.196551  0.938246  0.292802  1
  Li  Li13  1  0.188357  0.606808  0.943430  1
  Li  Li14  1  0.145082  0.263116  0.601818  1
  Li  Li15  1  0.999524  0.316987  0.336654  1
  Li  Li16  1  0.007595  0.672531  0.662202  1
  Cr  Cr17  1  0.497325  0.500997  0.495827  1
  Cr  Cr18  1  0.002171  0.995602  0.003525  1
  O  O19  1  0.861733  0.998472  0.239271  1
  O  O20  1  0.843562  0.677104  0.927519  1
  O  O21  1  0.801103  0.337529  0.581428  1
  O  O22  1  0.701115  0.167891  0.921231  1
  O  O23  1  0.651183  0.793662  0.572491  1
  O  O24  1  0.643003  0.503238  0.274985  1
  O  O25  1  0.348139  0.198335  0.421411  1
  O  O26  1  0.330645  0.495207  0.729439  1
  O  O27  1  0.321719  0.849580  0.075744  1
  O  O28  1  0.198459  0.656775  0.425454  1
  O  O29  1  0.158719  0.318048  0.061440  1
  O  O30  1  0.137826  0.015964  0.760552  1
