# generated using pymatgen
data_Yb4Ni13C4
_symmetry_space_group_name_H-M   'P 1'
_cell_length_a   8.27477732
_cell_length_b   8.27477732
_cell_length_c   3.84562953
_cell_angle_alpha   90.00000000
_cell_angle_beta   90.00000000
_cell_angle_gamma   90.58577786
_symmetry_Int_Tables_number   1
_chemical_formula_structural   Yb4Ni13C4
_chemical_formula_sum   'Yb4 Ni13 C4'
_cell_volume   263.30395201
_cell_formula_units_Z   1
loop_
 _symmetry_equiv_pos_site_id
 _symmetry_equiv_pos_as_xyz
  1  'x, y, z'
loop_
 _atom_site_type_symbol
 _atom_site_label
 _atom_site_symmetry_multiplicity
 _atom_site_fract_x
 _atom_site_fract_y
 _atom_site_fract_z
 _atom_site_occupancy
  Yb  Yb0  1  0.808810  0.191190  0.500000  1
  Yb  Yb1  1  0.191190  0.808810  0.500000  1
  Yb  Yb2  1  0.349887  0.349887  0.500000  1
  Yb  Yb3  1  0.650113  0.650113  0.500000  1
  Ni  Ni4  1  0.000000  0.000000  0.000000  1
  Ni  Ni5  1  0.215847  0.571749  0.000000  1
  Ni  Ni6  1  0.784153  0.428251  1.000000  1
  Ni  Ni7  1  0.428251  0.784153  0.000000  1
  Ni  Ni8  1  0.571749  0.215847  0.000000  1
  Ni  Ni9  1  0.000000  0.500000  0.500000  1
  Ni  Ni10  1  0.500000  1.000000  0.500000  1
  Ni  Ni11  1  0.072945  0.289119  0.000000  1
  Ni  Ni12  1  0.927055  0.710881  0.000000  1
  Ni  Ni13  1  0.710881  0.927055  0.000000  1
  Ni  Ni14  1  0.289119  0.072945  1.000000  1
  Ni  Ni15  1  0.121830  0.121830  0.500000  1
  Ni  Ni16  1  0.878170  0.878170  0.500000  1
  C  C17  1  0.000000  0.500000  0.000000  1
  C  C18  1  0.500000  1.000000  0.000000  1
  C  C19  1  0.443147  0.556853  0.000000  1
  C  C20  1  0.556853  0.443147  0.000000  1
