# generated using pymatgen
data_La3ScBeS7
_symmetry_space_group_name_H-M   'P 1'
_cell_length_a   10.24003590
_cell_length_b   10.24003590
_cell_length_c   6.05843100
_cell_angle_alpha   90.00000000
_cell_angle_beta   90.00000000
_cell_angle_gamma   120.00000000
_symmetry_Int_Tables_number   1
_chemical_formula_structural   La3ScBeS7
_chemical_formula_sum   'La6 Sc2 Be2 S14'
_cell_volume   550.16601042
_cell_formula_units_Z   2
loop_
 _symmetry_equiv_pos_site_id
 _symmetry_equiv_pos_as_xyz
  1  'x, y, z'
loop_
 _atom_site_type_symbol
 _atom_site_label
 _atom_site_symmetry_multiplicity
 _atom_site_fract_x
 _atom_site_fract_y
 _atom_site_fract_z
 _atom_site_occupancy
  La  La0  1  0.139480  0.393574  0.247332  1
  La  La1  1  0.860520  0.606426  0.747332  1
  La  La2  1  0.606426  0.745906  0.247332  1
  La  La3  1  0.254094  0.860520  0.247332  1
  La  La4  1  0.745906  0.139480  0.747332  1
  La  La5  1  0.393574  0.254094  0.747332  1
  Sc  Sc6  1  0.000000  0.000000  0.018540  1
  Sc  Sc7  1  0.000000  0.000000  0.518540  1
  Be  Be8  1  0.333333  0.666667  0.658544  1
  Be  Be9  1  0.666667  0.333333  0.158544  1
  S  S10  1  0.333333  0.666667  0.009384  1
  S  S11  1  0.666667  0.333333  0.509384  1
  S  S12  1  0.406389  0.520133  0.529672  1
  S  S13  1  0.593611  0.479867  0.029672  1
  S  S14  1  0.479867  0.886256  0.529672  1
  S  S15  1  0.113744  0.593611  0.529672  1
  S  S16  1  0.886256  0.406389  0.029672  1
  S  S17  1  0.520133  0.113744  0.029672  1
  S  S18  1  0.080752  0.231196  0.771533  1
  S  S19  1  0.919248  0.768804  0.271533  1
  S  S20  1  0.768804  0.849557  0.771533  1
  S  S21  1  0.150443  0.919248  0.771533  1
  S  S22  1  0.849557  0.080752  0.271533  1
  S  S23  1  0.231196  0.150443  0.271533  1
