# generated using pymatgen
data_Li2Mn3(BO3)3
_symmetry_space_group_name_H-M   'P 1'
_cell_length_a   8.89120439
_cell_length_b   8.89120439
_cell_length_c   14.31392754
_cell_angle_alpha   89.39127665
_cell_angle_beta   90.60872335
_cell_angle_gamma   138.17166065
_symmetry_Int_Tables_number   1
_chemical_formula_structural   Li2Mn3(BO3)3
_chemical_formula_sum   'Li8 Mn12 B12 O36'
_cell_volume   754.59401028
_cell_formula_units_Z   4
loop_
 _symmetry_equiv_pos_site_id
 _symmetry_equiv_pos_as_xyz
  1  'x, y, z'
loop_
 _atom_site_type_symbol
 _atom_site_label
 _atom_site_symmetry_multiplicity
 _atom_site_fract_x
 _atom_site_fract_y
 _atom_site_fract_z
 _atom_site_occupancy
  Li  Li0  1  0.669474  0.330526  0.859005  1
  Li  Li1  1  0.685598  0.314402  0.149257  1
  Li  Li2  1  0.145871  0.854129  0.487330  1
  Li  Li3  1  0.169524  0.830476  0.859924  1
  Li  Li4  1  0.920001  0.079999  0.360057  1
  Li  Li5  1  0.394355  0.605645  0.990749  1
  Li  Li6  1  0.418982  0.581018  0.359126  1
  Li  Li7  1  0.435302  0.564698  0.649527  1
  Mn  Mn8  1  0.344130  0.156859  0.675278  1
  Mn  Mn9  1  0.340355  0.158117  0.314231  1
  Mn  Mn10  1  0.092931  0.406350  0.175819  1
  Mn  Mn11  1  0.087677  0.404688  0.814863  1
  Mn  Mn12  1  0.060866  0.428264  0.510618  1
  Mn  Mn13  1  0.312458  0.179425  0.010078  1
  Mn  Mn14  1  0.820575  0.687542  0.010078  1
  Mn  Mn15  1  0.571736  0.939134  0.510618  1
  Mn  Mn16  1  0.595312  0.912323  0.814863  1
  Mn  Mn17  1  0.593650  0.907069  0.175819  1
  Mn  Mn18  1  0.841883  0.659645  0.314231  1
  Mn  Mn19  1  0.843141  0.655870  0.675278  1
  B  B20  1  0.746892  0.253108  0.671136  1
  B  B21  1  0.500508  0.499492  0.835822  1
  B  B22  1  0.500310  0.499690  0.167900  1
  B  B23  1  0.249518  0.252308  0.496752  1
  B  B24  1  0.498533  0.002143  0.996828  1
  B  B25  1  0.753100  0.246900  0.333609  1
  B  B26  1  0.996804  0.003196  0.169575  1
  B  B27  1  0.004684  0.995316  0.832267  1
  B  B28  1  0.997857  0.501467  0.996828  1
  B  B29  1  0.747692  0.750482  0.496752  1
  B  B30  1  0.252117  0.747883  0.335849  1
  B  B31  1  0.250724  0.749276  0.667120  1
  O  O32  1  0.977935  0.489247  0.092548  1
  O  O33  1  0.510391  0.489609  0.264580  1
  O  O34  1  0.506479  0.493521  0.932922  1
  O  O35  1  0.568397  0.431603  0.110837  1
  O  O36  1  0.568203  0.431797  0.780832  1
  O  O37  1  0.669187  0.330813  0.635532  1
  O  O38  1  0.675982  0.324018  0.294177  1
  O  O39  1  0.092482  0.449686  0.953301  1
  O  O40  1  0.262911  0.273170  0.592525  1
  O  O41  1  0.510753  0.022065  0.092548  1
  O  O42  1  0.431642  0.077147  0.943063  1
  O  O43  1  0.179634  0.324873  0.443395  1
  O  O44  1  0.303601  0.159922  0.453257  1
  O  O45  1  0.760454  0.239546  0.767952  1
  O  O46  1  0.811785  0.188215  0.611186  1
  O  O47  1  0.818981  0.181019  0.274919  1
  O  O48  1  0.068075  0.931925  0.768912  1
  O  O49  1  0.766571  0.233429  0.428831  1
  O  O50  1  0.919734  0.080266  0.132592  1
  O  O51  1  0.925541  0.074459  0.803740  1
  O  O52  1  0.009652  0.990348  0.266385  1
  O  O53  1  0.174995  0.825005  0.624887  1
  O  O54  1  0.025242  0.974758  0.926289  1
  O  O55  1  0.062166  0.937834  0.110259  1
  O  O56  1  0.173721  0.826279  0.303722  1
  O  O57  1  0.840078  0.696399  0.453257  1
  O  O58  1  0.675127  0.820366  0.443395  1
  O  O59  1  0.922853  0.568358  0.943063  1
  O  O60  1  0.726830  0.737089  0.592525  1
  O  O61  1  0.550314  0.907518  0.953301  1
  O  O62  1  0.264283  0.735717  0.432739  1
  O  O63  1  0.317711  0.682289  0.276451  1
  O  O64  1  0.319449  0.680551  0.610938  1
  O  O65  1  0.423840  0.576160  0.127564  1
  O  O66  1  0.259781  0.740219  0.763692  1
  O  O67  1  0.424569  0.575431  0.793076  1
