# generated using pymatgen
data_NbC2NCl8
_symmetry_space_group_name_H-M   'P 1'
_cell_length_a   6.16204346
_cell_length_b   6.16204346
_cell_length_c   16.75697374
_cell_angle_alpha   90.00000000
_cell_angle_beta   90.00000000
_cell_angle_gamma   97.49514568
_symmetry_Int_Tables_number   1
_chemical_formula_structural   NbC2NCl8
_chemical_formula_sum   'Nb2 C4 N2 Cl16'
_cell_volume   630.83896649
_cell_formula_units_Z   2
loop_
 _symmetry_equiv_pos_site_id
 _symmetry_equiv_pos_as_xyz
  1  'x, y, z'
loop_
 _atom_site_type_symbol
 _atom_site_label
 _atom_site_symmetry_multiplicity
 _atom_site_fract_x
 _atom_site_fract_y
 _atom_site_fract_z
 _atom_site_occupancy
  Nb  Nb0  1  0.594997  0.405003  0.374327  1
  Nb  Nb1  1  0.405003  0.594997  0.874327  1
  C  C2  1  0.933934  0.066066  0.143696  1
  C  C3  1  0.066066  0.933934  0.643696  1
  C  C4  1  0.845453  0.154547  0.216265  1
  C  C5  1  0.154547  0.845453  0.716265  1
  N  N6  1  0.771761  0.228239  0.272412  1
  N  N7  1  0.228239  0.771761  0.772412  1
  Cl  Cl8  1  0.069989  0.290728  0.088555  1
  Cl  Cl9  1  0.930011  0.709272  0.588555  1
  Cl  Cl10  1  0.709272  0.930011  0.088555  1
  Cl  Cl11  1  0.290728  0.069989  0.588555  1
  Cl  Cl12  1  0.444461  0.555539  0.260237  1
  Cl  Cl13  1  0.555539  0.444461  0.760237  1
  Cl  Cl14  1  0.118374  0.881626  0.171974  1
  Cl  Cl15  1  0.881626  0.118374  0.671974  1
  Cl  Cl16  1  0.418571  0.581429  0.469929  1
  Cl  Cl17  1  0.581429  0.418571  0.969929  1
  Cl  Cl18  1  0.331078  0.096453  0.362315  1
  Cl  Cl19  1  0.668922  0.903547  0.862315  1
  Cl  Cl20  1  0.903547  0.668922  0.362315  1
  Cl  Cl21  1  0.096453  0.331078  0.862315  1
  Cl  Cl22  1  0.795646  0.204354  0.460429  1
  Cl  Cl23  1  0.204354  0.795646  0.960429  1
