# generated using pymatgen
data_LiSiBiO4
_symmetry_space_group_name_H-M   'P 1'
_cell_length_a   9.55009419
_cell_length_b   7.02334980
_cell_length_c   19.19056067
_cell_angle_alpha   90.00000000
_cell_angle_beta   119.32679614
_cell_angle_gamma   90.00000000
_symmetry_Int_Tables_number   1
_chemical_formula_structural   LiSiBiO4
_chemical_formula_sum   'Li12 Si12 Bi12 O48'
_cell_volume   1122.21626341
_cell_formula_units_Z   12
loop_
 _symmetry_equiv_pos_site_id
 _symmetry_equiv_pos_as_xyz
  1  'x, y, z'
loop_
 _atom_site_type_symbol
 _atom_site_label
 _atom_site_symmetry_multiplicity
 _atom_site_fract_x
 _atom_site_fract_y
 _atom_site_fract_z
 _atom_site_occupancy
  Li  Li0  1  0.682462  0.999972  0.919486  1
  Li  Li1  1  0.329393  0.011595  0.584454  1
  Li  Li2  1  0.999533  0.149862  0.251747  1
  Li  Li3  1  0.000467  0.649862  0.248253  1
  Li  Li4  1  0.670607  0.511595  0.915546  1
  Li  Li5  1  0.317538  0.499972  0.580514  1
  Li  Li6  1  0.682462  0.500028  0.419486  1
  Li  Li7  1  0.329393  0.488405  0.084454  1
  Li  Li8  1  0.999533  0.350138  0.751747  1
  Li  Li9  1  0.000467  0.850138  0.748253  1
  Li  Li10  1  0.670607  0.988405  0.415546  1
  Li  Li11  1  0.317538  0.000028  0.080514  1
  Si  Si12  1  0.358757  0.753170  0.407773  1
  Si  Si13  1  0.681741  0.744398  0.764461  1
  Si  Si14  1  0.969880  0.751422  0.072700  1
  Si  Si15  1  0.030120  0.251422  0.427300  1
  Si  Si16  1  0.318259  0.244398  0.735539  1
  Si  Si17  1  0.641243  0.253170  0.092227  1
  Si  Si18  1  0.358757  0.746830  0.907773  1
  Si  Si19  1  0.681741  0.755602  0.264461  1
  Si  Si20  1  0.969880  0.748578  0.572700  1
  Si  Si21  1  0.030120  0.248578  0.927300  1
  Si  Si22  1  0.318259  0.255602  0.235539  1
  Si  Si23  1  0.641243  0.246830  0.592227  1
  Bi  Bi24  1  0.380715  0.256916  0.405001  1
  Bi  Bi25  1  0.690809  0.246405  0.780800  1
  Bi  Bi26  1  0.924543  0.255590  0.064997  1
  Bi  Bi27  1  0.075457  0.755590  0.435003  1
  Bi  Bi28  1  0.309191  0.746405  0.719200  1
  Bi  Bi29  1  0.619285  0.756916  0.094999  1
  Bi  Bi30  1  0.380715  0.243084  0.905001  1
  Bi  Bi31  1  0.690809  0.253595  0.280800  1
  Bi  Bi32  1  0.924543  0.244410  0.564997  1
  Bi  Bi33  1  0.075457  0.744410  0.935003  1
  Bi  Bi34  1  0.309191  0.753595  0.219200  1
  Bi  Bi35  1  0.619285  0.743084  0.594999  1
  O  O36  1  0.541596  0.433711  0.595845  1
  O  O37  1  0.547926  0.059829  0.599976  1
  O  O38  1  0.858605  0.229426  0.931696  1
  O  O39  1  0.695526  0.558838  0.819233  1
  O  O40  1  0.347084  0.757068  0.493062  1
  O  O41  1  0.706062  0.932127  0.820136  1
  O  O42  1  0.195438  0.259706  0.272683  1
  O  O43  1  0.046258  0.725514  0.169605  1
  O  O44  1  0.858931  0.568739  0.023164  1
  O  O45  1  0.147891  0.437798  0.462005  1
  O  O46  1  0.504285  0.744383  0.677771  1
  O  O47  1  0.167238  0.751054  0.342234  1
  O  O48  1  0.495715  0.244383  0.822229  1
  O  O49  1  0.832762  0.251054  0.157766  1
  O  O50  1  0.852109  0.937798  0.037995  1
  O  O51  1  0.141069  0.068739  0.476836  1
  O  O52  1  0.953742  0.225514  0.330395  1
  O  O53  1  0.293938  0.432127  0.679864  1
  O  O54  1  0.804562  0.759706  0.227317  1
  O  O55  1  0.652916  0.257068  0.006938  1
  O  O56  1  0.304474  0.058838  0.680767  1
  O  O57  1  0.141395  0.729426  0.568304  1
  O  O58  1  0.452074  0.559829  0.900024  1
  O  O59  1  0.458404  0.933711  0.904155  1
  O  O60  1  0.541596  0.066289  0.095845  1
  O  O61  1  0.547926  0.440171  0.099976  1
  O  O62  1  0.858605  0.270574  0.431696  1
  O  O63  1  0.695526  0.941162  0.319233  1
  O  O64  1  0.347084  0.742932  0.993062  1
  O  O65  1  0.195438  0.240294  0.772683  1
  O  O66  1  0.706062  0.567873  0.320136  1
  O  O67  1  0.046258  0.774486  0.669605  1
  O  O68  1  0.858931  0.931261  0.523164  1
  O  O69  1  0.147891  0.062202  0.962005  1
  O  O70  1  0.167238  0.748946  0.842234  1
  O  O71  1  0.504285  0.755617  0.177771  1
  O  O72  1  0.832762  0.248946  0.657766  1
  O  O73  1  0.495715  0.255617  0.322229  1
  O  O74  1  0.852109  0.562202  0.537995  1
  O  O75  1  0.141069  0.431261  0.976836  1
  O  O76  1  0.953742  0.274486  0.830395  1
  O  O77  1  0.804562  0.740294  0.727317  1
  O  O78  1  0.293938  0.067873  0.179864  1
  O  O79  1  0.652916  0.242932  0.506938  1
  O  O80  1  0.304474  0.441162  0.180767  1
  O  O81  1  0.141395  0.770574  0.068304  1
  O  O82  1  0.452074  0.940171  0.400024  1
  O  O83  1  0.458404  0.566289  0.404155  1
