# generated using pymatgen
data_Tl4SiS4
_symmetry_space_group_name_H-M   'P 1'
_cell_length_a   8.75744286
_cell_length_b   8.75744286
_cell_length_c   7.80755741
_cell_angle_alpha   72.29888796
_cell_angle_beta   107.70111204
_cell_angle_gamma   95.61705497
_symmetry_Int_Tables_number   1
_chemical_formula_structural   Tl4SiS4
_chemical_formula_sum   'Tl8 Si2 S8'
_cell_volume   543.41780543
_cell_formula_units_Z   2
loop_
 _symmetry_equiv_pos_site_id
 _symmetry_equiv_pos_as_xyz
  1  'x, y, z'
loop_
 _atom_site_type_symbol
 _atom_site_label
 _atom_site_symmetry_multiplicity
 _atom_site_fract_x
 _atom_site_fract_y
 _atom_site_fract_z
 _atom_site_occupancy
  Tl  Tl0  1  0.808293  0.215271  0.923019  1
  Tl  Tl1  1  0.784729  0.191707  0.423019  1
  Tl  Tl2  1  0.423217  0.035136  0.962987  1
  Tl  Tl3  1  0.964864  0.576783  0.462987  1
  Tl  Tl4  1  0.989732  0.737019  0.921862  1
  Tl  Tl5  1  0.262981  0.010268  0.421862  1
  Tl  Tl6  1  0.581098  0.631535  0.992784  1
  Tl  Tl7  1  0.368465  0.418902  0.492784  1
  Si  Si8  1  0.202258  0.382530  0.972051  1
  Si  Si9  1  0.617470  0.797742  0.472051  1
  S  S10  1  0.771029  0.905232  0.300248  1
  S  S11  1  0.381324  0.765974  0.295584  1
  S  S12  1  0.234026  0.618676  0.795584  1
  S  S13  1  0.430571  0.288516  0.156663  1
  S  S14  1  0.606626  0.944536  0.643602  1
  S  S15  1  0.055464  0.393374  0.143602  1
  S  S16  1  0.711484  0.569429  0.656663  1
  S  S17  1  0.094768  0.228971  0.800248  1
