# generated using pymatgen
data_Li5Mn6(BO3)6
_symmetry_space_group_name_H-M   'P 1'
_cell_length_a   8.90657303
_cell_length_b   8.90657303
_cell_length_c   14.28378689
_cell_angle_alpha   89.86587665
_cell_angle_beta   90.13412335
_cell_angle_gamma   138.14084369
_symmetry_Int_Tables_number   1
_chemical_formula_structural   Li5Mn6(BO3)6
_chemical_formula_sum   'Li10 Mn12 B12 O36'
_cell_volume   756.11100638
_cell_formula_units_Z   2
loop_
 _symmetry_equiv_pos_site_id
 _symmetry_equiv_pos_as_xyz
  1  'x, y, z'
loop_
 _atom_site_type_symbol
 _atom_site_label
 _atom_site_symmetry_multiplicity
 _atom_site_fract_x
 _atom_site_fract_y
 _atom_site_fract_z
 _atom_site_occupancy
  Li  Li0  1  0.394939  0.605061  0.990808  1
  Li  Li1  1  0.420251  0.579749  0.359255  1
  Li  Li2  1  0.920612  0.079388  0.359676  1
  Li  Li3  1  0.933849  0.066151  0.649113  1
  Li  Li4  1  0.433892  0.566108  0.649872  1
  Li  Li5  1  0.644503  0.355497  0.491191  1
  Li  Li6  1  0.670248  0.329752  0.859101  1
  Li  Li7  1  0.170613  0.829387  0.859900  1
  Li  Li8  1  0.683473  0.316527  0.148716  1
  Li  Li9  1  0.184243  0.815757  0.150385  1
  Mn  Mn10  1  0.065412  0.439561  0.505717  1
  Mn  Mn11  1  0.560439  0.934588  0.505717  1
  Mn  Mn12  1  0.087795  0.408334  0.818132  1
  Mn  Mn13  1  0.591666  0.912205  0.818132  1
  Mn  Mn14  1  0.600326  0.905998  0.175366  1
  Mn  Mn15  1  0.094002  0.399674  0.175366  1
  Mn  Mn16  1  0.310817  0.184806  0.005739  1
  Mn  Mn17  1  0.815194  0.689183  0.005739  1
  Mn  Mn18  1  0.337750  0.157954  0.318175  1
  Mn  Mn19  1  0.842046  0.662250  0.318175  1
  Mn  Mn20  1  0.343901  0.149482  0.675391  1
  Mn  Mn21  1  0.850518  0.656099  0.675391  1
  B  B22  1  0.001536  0.505845  0.999780  1
  B  B23  1  0.494155  0.998464  0.999780  1
  B  B24  1  0.750199  0.249801  0.332596  1
  B  B25  1  0.253396  0.746604  0.330605  1
  B  B26  1  0.750419  0.249581  0.667061  1
  B  B27  1  0.251163  0.748837  0.670028  1
  B  B28  1  0.251917  0.256312  0.499859  1
  B  B29  1  0.743688  0.748083  0.499859  1
  B  B30  1  0.500779  0.499221  0.166823  1
  B  B31  1  0.000742  0.999258  0.170215  1
  B  B32  1  0.501286  0.498714  0.831343  1
  B  B33  1  0.002109  0.997891  0.831917  1
  O  O34  1  0.266140  0.733860  0.426023  1
  O  O35  1  0.755846  0.244154  0.429901  1
  O  O36  1  0.261960  0.738040  0.766986  1
  O  O37  1  0.759852  0.240148  0.763620  1
  O  O38  1  0.817749  0.182251  0.608588  1
  O  O39  1  0.318306  0.681694  0.610769  1
  O  O40  1  0.819033  0.180967  0.278392  1
  O  O41  1  0.320163  0.679837  0.271836  1
  O  O42  1  0.089608  0.445943  0.958438  1
  O  O43  1  0.554057  0.910392  0.958438  1
  O  O44  1  0.924507  0.075493  0.132948  1
  O  O45  1  0.424614  0.575386  0.125868  1
  O  O46  1  0.925597  0.074403  0.792632  1
  O  O47  1  0.425711  0.574289  0.790410  1
  O  O48  1  0.175213  0.319980  0.445292  1
  O  O49  1  0.680020  0.824787  0.445292  1
  O  O50  1  0.740465  0.758561  0.597744  1
  O  O51  1  0.241439  0.259535  0.597744  1
  O  O52  1  0.014606  0.985394  0.927252  1
  O  O53  1  0.507232  0.492768  0.928762  1
  O  O54  1  0.510016  0.489984  0.263215  1
  O  O55  1  0.011809  0.988191  0.267328  1
  O  O56  1  0.568194  0.431806  0.108166  1
  O  O57  1  0.067911  0.932089  0.111121  1
  O  O58  1  0.569998  0.430002  0.776481  1
  O  O59  1  0.069065  0.930935  0.773797  1
  O  O60  1  0.340132  0.196699  0.458457  1
  O  O61  1  0.803301  0.659868  0.458457  1
  O  O62  1  0.673934  0.326066  0.626807  1
  O  O63  1  0.175154  0.824846  0.632180  1
  O  O64  1  0.674749  0.325251  0.290814  1
  O  O65  1  0.176733  0.823267  0.292157  1
  O  O66  1  0.925204  0.569833  0.945125  1
  O  O67  1  0.430167  0.074796  0.945125  1
  O  O68  1  0.491076  0.009260  0.097619  1
  O  O69  1  0.990740  0.508924  0.097619  1
