# generated using pymatgen
data_V3(O2F)2
_symmetry_space_group_name_H-M   'P 1'
_cell_length_a   4.69058984
_cell_length_b   5.61887761
_cell_length_c   7.71569693
_cell_angle_alpha   85.51944624
_cell_angle_beta   88.66446461
_cell_angle_gamma   88.59657527
_symmetry_Int_Tables_number   1
_chemical_formula_structural   V3(O2F)2
_chemical_formula_sum   'V6 O8 F4'
_cell_volume   202.62477031
_cell_formula_units_Z   2
loop_
 _symmetry_equiv_pos_site_id
 _symmetry_equiv_pos_as_xyz
  1  'x, y, z'
loop_
 _atom_site_type_symbol
 _atom_site_label
 _atom_site_symmetry_multiplicity
 _atom_site_fract_x
 _atom_site_fract_y
 _atom_site_fract_z
 _atom_site_occupancy
  V  V0  1  0.494014  0.830950  0.673744  1
  V  V1  1  0.493959  0.496073  0.986726  1
  V  V2  1  0.529716  0.165957  0.343804  1
  V  V3  1  0.006602  0.340014  0.670702  1
  V  V4  1  0.941988  0.660439  0.325689  1
  V  V5  1  0.009424  0.002399  0.003353  1
  O  O6  1  0.811473  0.372171  0.429495  1
  O  O7  1  0.806224  0.696217  0.105670  1
  O  O8  1  0.681675  0.194978  0.119769  1
  O  O9  1  0.702515  0.539424  0.754362  1
  O  O10  1  0.711452  0.867455  0.433895  1
  O  O11  1  0.319198  0.139558  0.550059  1
  O  O12  1  0.298948  0.798672  0.897255  1
  O  O13  1  0.194807  0.295137  0.898727  1
  F  F14  1  0.801255  0.036950  0.770293  1
  F  F15  1  0.294809  0.470684  0.242149  1
  F  F16  1  0.202028  0.957171  0.241193  1
  F  F17  1  0.199910  0.635752  0.553115  1
