# generated using pymatgen
data_Li2Fe4OF8
_symmetry_space_group_name_H-M   'P 1'
_cell_length_a   8.89966920
_cell_length_b   8.89966920
_cell_length_c   10.67449008
_cell_angle_alpha   85.71374527
_cell_angle_beta   94.28625473
_cell_angle_gamma   117.73063067
_symmetry_Int_Tables_number   1
_chemical_formula_structural   Li2Fe4OF8
_chemical_formula_sum   'Li8 Fe16 O4 F32'
_cell_volume   745.49948264
_cell_formula_units_Z   4
loop_
 _symmetry_equiv_pos_site_id
 _symmetry_equiv_pos_as_xyz
  1  'x, y, z'
loop_
 _atom_site_type_symbol
 _atom_site_label
 _atom_site_symmetry_multiplicity
 _atom_site_fract_x
 _atom_site_fract_y
 _atom_site_fract_z
 _atom_site_occupancy
  Li  Li0  1  0.670406  0.324617  0.291859  1
  Li  Li1  1  0.675383  0.329594  0.791859  1
  Li  Li2  1  0.008756  0.999544  0.504865  1
  Li  Li3  1  0.000456  0.991244  0.004865  1
  Li  Li4  1  0.352188  0.675933  0.202777  1
  Li  Li5  1  0.324067  0.647812  0.702777  1
  Li  Li6  1  0.300420  0.999100  0.254707  1
  Li  Li7  1  0.000900  0.699580  0.754707  1
  Fe  Fe8  1  0.992350  0.312900  0.244734  1
  Fe  Fe9  1  0.687100  0.007650  0.744734  1
  Fe  Fe10  1  0.667558  0.092694  0.057445  1
  Fe  Fe11  1  0.907306  0.332442  0.557445  1
  Fe  Fe12  1  0.847907  0.506061  0.044707  1
  Fe  Fe13  1  0.493939  0.152093  0.544707  1
  Fe  Fe14  1  0.359401  0.311338  0.052149  1
  Fe  Fe15  1  0.688662  0.640599  0.552149  1
  Fe  Fe16  1  0.837342  0.841989  0.251052  1
  Fe  Fe17  1  0.158011  0.162658  0.751052  1
  Fe  Fe18  1  0.320525  0.351817  0.469742  1
  Fe  Fe19  1  0.648183  0.679475  0.969742  1
  Fe  Fe20  1  0.519153  0.853593  0.456017  1
  Fe  Fe21  1  0.146407  0.480847  0.956017  1
  Fe  Fe22  1  0.058441  0.644061  0.416045  1
  Fe  Fe23  1  0.355939  0.941559  0.916045  1
  O  O24  1  0.783237  0.293508  0.146724  1
  O  O25  1  0.914558  0.412949  0.381154  1
  O  O26  1  0.706492  0.216763  0.646724  1
  O  O27  1  0.587051  0.085442  0.881154  1
  F  F28  1  0.934184  0.073474  0.336400  1
  F  F29  1  0.926526  0.065816  0.836400  1
  F  F30  1  0.567039  0.088859  0.381701  1
  F  F31  1  0.911141  0.432961  0.881701  1
  F  F32  1  0.429490  0.234039  0.205782  1
  F  F33  1  0.733059  0.607570  0.161101  1
  F  F34  1  0.765961  0.570510  0.705782  1
  F  F35  1  0.392430  0.266941  0.661101  1
  F  F36  1  0.263085  0.094676  0.446453  1
  F  F37  1  0.577853  0.421683  0.445609  1
  F  F38  1  0.904080  0.760158  0.436578  1
  F  F39  1  0.905324  0.736915  0.946453  1
  F  F40  1  0.578317  0.422147  0.945609  1
  F  F41  1  0.239842  0.095920  0.936578  1
  F  F42  1  0.753552  0.906053  0.068319  1
  F  F43  1  0.401819  0.569029  0.047968  1
  F  F44  1  0.102850  0.255939  0.068278  1
  F  F45  1  0.093947  0.246448  0.568319  1
  F  F46  1  0.430971  0.598181  0.547968  1
  F  F47  1  0.744061  0.897150  0.568278  1
  F  F48  1  0.593005  0.765013  0.313690  1
  F  F49  1  0.249403  0.428252  0.305524  1
  F  F50  1  0.234987  0.406995  0.813690  1
  F  F51  1  0.571748  0.750597  0.805524  1
  F  F52  1  0.111748  0.573107  0.115822  1
  F  F53  1  0.411422  0.910282  0.111959  1
  F  F54  1  0.426893  0.888252  0.615822  1
  F  F55  1  0.284407  0.786191  0.349719  1
  F  F56  1  0.089718  0.588578  0.611959  1
  F  F57  1  0.213809  0.715593  0.849719  1
  F  F58  1  0.067226  0.922039  0.181122  1
  F  F59  1  0.077961  0.932774  0.681122  1
