# generated using pymatgen
data_Li2TiFe3O8
_symmetry_space_group_name_H-M   'P 1'
_cell_length_a   5.98656847
_cell_length_b   5.98656847
_cell_length_c   5.98656847
_cell_angle_alpha   59.94389993
_cell_angle_beta   59.94389993
_cell_angle_gamma   59.94389993
_symmetry_Int_Tables_number   1
_chemical_formula_structural   Li2TiFe3O8
_chemical_formula_sum   'Li2 Ti1 Fe3 O8'
_cell_volume   151.51859212
_cell_formula_units_Z   1
loop_
 _symmetry_equiv_pos_site_id
 _symmetry_equiv_pos_as_xyz
  1  'x, y, z'
loop_
 _atom_site_type_symbol
 _atom_site_label
 _atom_site_symmetry_multiplicity
 _atom_site_fract_x
 _atom_site_fract_y
 _atom_site_fract_z
 _atom_site_occupancy
  Li  Li0  1  0.874820  0.874820  0.874820  1
  Li  Li1  1  0.125180  0.125180  0.125180  1
  Ti  Ti2  1  0.500000  0.500000  0.500000  1
  Fe  Fe3  1  0.500000  0.000000  0.500000  1
  Fe  Fe4  1  0.500000  0.500000  0.000000  1
  Fe  Fe5  1  0.000000  0.500000  0.500000  1
  O  O6  1  0.737721  0.737721  0.737721  1
  O  O7  1  0.285152  0.734554  0.734554  1
  O  O8  1  0.734554  0.734554  0.285152  1
  O  O9  1  0.734554  0.285152  0.734554  1
  O  O10  1  0.265446  0.714848  0.265446  1
  O  O11  1  0.265446  0.265446  0.714848  1
  O  O12  1  0.714848  0.265446  0.265446  1
  O  O13  1  0.262279  0.262279  0.262279  1
