# generated using pymatgen
data_LiFeSiO4
_symmetry_space_group_name_H-M   'P 1'
_cell_length_a   4.80452465
_cell_length_b   5.87748728
_cell_length_c   10.20029107
_cell_angle_alpha   90.00000000
_cell_angle_beta   90.00000000
_cell_angle_gamma   90.00000000
_symmetry_Int_Tables_number   1
_chemical_formula_structural   LiFeSiO4
_chemical_formula_sum   'Li4 Fe4 Si4 O16'
_cell_volume   288.04125107
_cell_formula_units_Z   4
loop_
 _symmetry_equiv_pos_site_id
 _symmetry_equiv_pos_as_xyz
  1  'x, y, z'
loop_
 _atom_site_type_symbol
 _atom_site_label
 _atom_site_symmetry_multiplicity
 _atom_site_fract_x
 _atom_site_fract_y
 _atom_site_fract_z
 _atom_site_occupancy
  Li  Li0  1  0.000000  0.000000  0.500000  1
  Li  Li1  1  0.000000  0.500000  0.500000  1
  Li  Li2  1  0.500000  0.500000  0.000000  1
  Li  Li3  1  0.500000  0.000000  0.000000  1
  Fe  Fe4  1  0.993382  0.250000  0.226889  1
  Fe  Fe5  1  0.506618  0.250000  0.726889  1
  Fe  Fe6  1  0.493382  0.750000  0.273111  1
  Fe  Fe7  1  0.006618  0.750000  0.773111  1
  Si  Si8  1  0.940857  0.750000  0.093334  1
  Si  Si9  1  0.559143  0.750000  0.593334  1
  Si  Si10  1  0.440857  0.250000  0.406666  1
  Si  Si11  1  0.059143  0.250000  0.906666  1
  O  O12  1  0.313687  0.250000  0.555887  1
  O  O13  1  0.777896  0.250000  0.397730  1
  O  O14  1  0.716437  0.964895  0.671079  1
  O  O15  1  0.716437  0.535105  0.671079  1
  O  O16  1  0.783563  0.964895  0.171079  1
  O  O17  1  0.783563  0.535105  0.171079  1
  O  O18  1  0.722104  0.250000  0.897730  1
  O  O19  1  0.186313  0.250000  0.055887  1
  O  O20  1  0.813687  0.750000  0.944113  1
  O  O21  1  0.277896  0.750000  0.102270  1
  O  O22  1  0.283563  0.464895  0.328921  1
  O  O23  1  0.283563  0.035105  0.328921  1
  O  O24  1  0.216437  0.464895  0.828921  1
  O  O25  1  0.216437  0.035105  0.828921  1
  O  O26  1  0.222104  0.750000  0.602270  1
  O  O27  1  0.686313  0.750000  0.444113  1
