# generated using pymatgen
data_CsNpCuS3
_symmetry_space_group_name_H-M   'P 1'
_cell_length_a   7.99727398
_cell_length_b   7.99727398
_cell_length_c   10.19887228
_cell_angle_alpha   90.00000000
_cell_angle_beta   90.00000000
_cell_angle_gamma   150.87293215
_symmetry_Int_Tables_number   1
_chemical_formula_structural   CsNpCuS3
_chemical_formula_sum   'Cs2 Np2 Cu2 S6'
_cell_volume   317.49755320
_cell_formula_units_Z   2
loop_
 _symmetry_equiv_pos_site_id
 _symmetry_equiv_pos_as_xyz
  1  'x, y, z'
loop_
 _atom_site_type_symbol
 _atom_site_label
 _atom_site_symmetry_multiplicity
 _atom_site_fract_x
 _atom_site_fract_y
 _atom_site_fract_z
 _atom_site_occupancy
  Cs  Cs0  1  0.740411  0.259589  0.250000  1
  Cs  Cs1  1  0.259589  0.740411  0.750000  1
  Np  Np2  1  0.000000  0.000000  0.000000  1
  Np  Np3  1  0.000000  0.000000  0.500000  1
  Cu  Cu4  1  0.465420  0.534580  0.250000  1
  Cu  Cu5  1  0.534580  0.465420  0.750000  1
  S  S6  1  0.387984  0.612016  0.057577  1
  S  S7  1  0.051244  0.948756  0.250000  1
  S  S8  1  0.387984  0.612016  0.442423  1
  S  S9  1  0.612016  0.387984  0.557577  1
  S  S10  1  0.948756  0.051244  0.750000  1
  S  S11  1  0.612016  0.387984  0.942423  1
