# generated using pymatgen
data_CaSiPd
_symmetry_space_group_name_H-M   'P 1'
_cell_length_a   5.91284694
_cell_length_b   5.76865579
_cell_length_c   7.80388891
_cell_angle_alpha   90.00000000
_cell_angle_beta   116.18712833
_cell_angle_gamma   90.00000000
_symmetry_Int_Tables_number   1
_chemical_formula_structural   CaSiPd
_chemical_formula_sum   'Ca4 Si4 Pd4'
_cell_volume   238.86243427
_cell_formula_units_Z   4
loop_
 _symmetry_equiv_pos_site_id
 _symmetry_equiv_pos_as_xyz
  1  'x, y, z'
loop_
 _atom_site_type_symbol
 _atom_site_label
 _atom_site_symmetry_multiplicity
 _atom_site_fract_x
 _atom_site_fract_y
 _atom_site_fract_z
 _atom_site_occupancy
  Ca  Ca0  1  0.797308  0.873284  0.115983  1
  Ca  Ca1  1  0.797308  0.626716  0.615983  1
  Ca  Ca2  1  0.202692  0.126716  0.884017  1
  Ca  Ca3  1  0.202692  0.373284  0.384017  1
  Si  Si4  1  0.784496  0.382875  0.955409  1
  Si  Si5  1  0.215504  0.617125  0.044591  1
  Si  Si6  1  0.215504  0.882875  0.544591  1
  Si  Si7  1  0.784496  0.117125  0.455409  1
  Pd  Pd8  1  0.613166  0.388173  0.189786  1
  Pd  Pd9  1  0.386834  0.611827  0.810214  1
  Pd  Pd10  1  0.613166  0.111827  0.689786  1
  Pd  Pd11  1  0.386834  0.888173  0.310214  1
