# generated using pymatgen
data_Co21O40
_symmetry_space_group_name_H-M   'P 1'
_cell_length_a   9.82959479
_cell_length_b   9.82959479
_cell_length_c   9.82959479
_cell_angle_alpha   99.53013393
_cell_angle_beta   99.53013393
_cell_angle_gamma   131.97970928
_symmetry_Int_Tables_number   1
_chemical_formula_structural   Co21O40
_chemical_formula_sum   'Co21 O40'
_cell_volume   644.93307950
_cell_formula_units_Z   1
loop_
 _symmetry_equiv_pos_site_id
 _symmetry_equiv_pos_as_xyz
  1  'x, y, z'
loop_
 _atom_site_type_symbol
 _atom_site_label
 _atom_site_symmetry_multiplicity
 _atom_site_fract_x
 _atom_site_fract_y
 _atom_site_fract_z
 _atom_site_occupancy
  Co  Co0  1  0.923596  0.272562  0.946656  1
  Co  Co1  1  0.323010  0.473928  0.046570  1
  Co  Co2  1  0.427358  0.276440  0.953430  1
  Co  Co3  1  0.526072  0.572642  0.849082  1
  Co  Co4  1  0.524653  0.075356  0.854946  1
  Co  Co5  1  0.725100  0.172659  0.648078  1
  Co  Co6  1  0.625535  0.871306  0.750449  1
  Co  Co7  1  0.128694  0.879143  0.754229  1
  Co  Co8  1  0.330293  0.475347  0.550704  1
  Co  Co9  1  0.922978  0.274900  0.447559  1
  Co  Co10  1  0.727438  0.674094  0.651033  1
  Co  Co11  1  0.250000  0.750000  0.500000  1
  Co  Co12  1  0.524581  0.077022  0.351922  1
  Co  Co13  1  0.827341  0.475419  0.552441  1
  Co  Co14  1  0.924644  0.779589  0.449296  1
  Co  Co15  1  0.023061  0.076404  0.348967  1
  Co  Co16  1  0.120857  0.875086  0.249551  1
  Co  Co17  1  0.124914  0.374465  0.245771  1
  Co  Co18  1  0.220411  0.669707  0.145054  1
  Co  Co19  1  0.723560  0.676990  0.150918  1
  Co  Co20  1  0.325906  0.976939  0.053344  1
  O  O21  1  0.082632  0.251266  0.052832  1
  O  O22  1  0.169772  0.514703  0.963589  1
  O  O23  1  0.562989  0.696311  0.040136  1
  O  O24  1  0.656174  0.522853  0.959864  1
  O  O25  1  0.394039  0.619564  0.742007  1
  O  O26  1  0.551114  0.206183  0.036411  1
  O  O27  1  0.677883  0.032780  0.929521  1
  O  O28  1  0.764247  0.295948  0.840086  1
  O  O29  1  0.882896  0.633054  0.730904  1
  O  O30  1  0.303689  0.343826  0.866678  1
  O  O31  1  0.198433  0.029800  0.947168  1
  O  O32  1  0.848008  0.117104  0.750159  1
  O  O33  1  0.948761  0.402832  0.632542  1
  O  O34  1  0.380436  0.122443  0.774475  1
  O  O35  1  0.289840  0.856237  0.861831  1
  O  O36  1  0.485297  0.448886  0.655069  1
  O  O37  1  0.075838  0.235753  0.531700  1
  O  O38  1  0.490849  0.935989  0.662085  1
  O  O39  1  0.597168  0.229711  0.545930  1
  O  O40  1  0.748734  0.801567  0.831366  1
  O  O41  1  0.683781  0.051239  0.454070  1
  O  O42  1  0.967220  0.896741  0.645103  1
  O  O43  1  0.902150  0.151992  0.269096  1
  O  O44  1  0.064011  0.726096  0.554860  1
  O  O45  1  0.143763  0.005594  0.433603  1
  O  O46  1  0.571992  0.710160  0.566397  1
  O  O47  1  0.171236  0.509151  0.445140  1
  O  O48  1  0.273904  0.828764  0.337915  1
  O  O49  1  0.366946  0.097850  0.249841  1
  O  O50  1  0.704052  0.544138  0.468300  1
  O  O51  1  0.455862  0.924162  0.159914  1
  O  O52  1  0.793817  0.830228  0.344931  1
  O  O53  1  0.347968  0.605961  0.225525  1
  O  O54  1  0.770289  0.316219  0.367458  1
  O  O55  1  0.970200  0.917368  0.168634  1
  O  O56  1  0.877557  0.652032  0.257993  1
  O  O57  1  0.103259  0.748362  0.070479  1
  O  O58  1  0.251638  0.322117  0.354897  1
  O  O59  1  0.994406  0.428008  0.138169  1
  O  O60  1  0.477147  0.437011  0.133322  1
