# generated using pymatgen
data_CrAgO4
_symmetry_space_group_name_H-M   'P 1'
_cell_length_a   5.81207809
_cell_length_b   8.80900543
_cell_length_c   8.61019785
_cell_angle_alpha   90.00000000
_cell_angle_beta   116.64309163
_cell_angle_gamma   90.00000000
_symmetry_Int_Tables_number   1
_chemical_formula_structural   CrAgO4
_chemical_formula_sum   'Cr4 Ag4 O16'
_cell_volume   394.02172804
_cell_formula_units_Z   4
loop_
 _symmetry_equiv_pos_site_id
 _symmetry_equiv_pos_as_xyz
  1  'x, y, z'
loop_
 _atom_site_type_symbol
 _atom_site_label
 _atom_site_symmetry_multiplicity
 _atom_site_fract_x
 _atom_site_fract_y
 _atom_site_fract_z
 _atom_site_occupancy
  Cr  Cr0  1  0.910142  0.544036  0.715685  1
  Cr  Cr1  1  0.089858  0.044036  0.784315  1
  Cr  Cr2  1  0.910142  0.955964  0.215685  1
  Cr  Cr3  1  0.089858  0.455964  0.284315  1
  Ag  Ag4  1  0.361091  0.708489  0.101021  1
  Ag  Ag5  1  0.638909  0.208489  0.398979  1
  Ag  Ag6  1  0.361091  0.791511  0.601021  1
  Ag  Ag7  1  0.638909  0.291511  0.898979  1
  O  O8  1  0.754201  0.696874  0.719550  1
  O  O9  1  0.265408  0.610429  0.315301  1
  O  O10  1  0.966892  0.927666  0.023616  1
  O  O11  1  0.813765  0.031507  0.607635  1
  O  O12  1  0.186235  0.531507  0.892365  1
  O  O13  1  0.033108  0.427666  0.476384  1
  O  O14  1  0.734592  0.110429  0.184699  1
  O  O15  1  0.754201  0.803126  0.219550  1
  O  O16  1  0.245799  0.196874  0.780450  1
  O  O17  1  0.265408  0.889571  0.815301  1
  O  O18  1  0.966892  0.572334  0.523616  1
  O  O19  1  0.813765  0.468493  0.107635  1
  O  O20  1  0.186235  0.968493  0.392365  1
  O  O21  1  0.033108  0.072334  0.976384  1
  O  O22  1  0.734592  0.389571  0.684699  1
  O  O23  1  0.245799  0.303126  0.280450  1
