# generated using pymatgen
data_Ca2SnS4
_symmetry_space_group_name_H-M   'P 1'
_cell_length_a   7.33776369
_cell_length_b   8.68569285
_cell_length_c   10.97715246
_cell_angle_alpha   90.00000000
_cell_angle_beta   90.00000000
_cell_angle_gamma   90.00000000
_symmetry_Int_Tables_number   1
_chemical_formula_structural   Ca2SnS4
_chemical_formula_sum   'Ca8 Sn4 S16'
_cell_volume   699.61302269
_cell_formula_units_Z   4
loop_
 _symmetry_equiv_pos_site_id
 _symmetry_equiv_pos_as_xyz
  1  'x, y, z'
loop_
 _atom_site_type_symbol
 _atom_site_label
 _atom_site_symmetry_multiplicity
 _atom_site_fract_x
 _atom_site_fract_y
 _atom_site_fract_z
 _atom_site_occupancy
  Ca  Ca0  1  0.120613  0.005092  0.690468  1
  Ca  Ca1  1  0.379387  0.494908  0.190468  1
  Ca  Ca2  1  0.879387  0.505092  0.309532  1
  Ca  Ca3  1  0.620613  0.994908  0.809532  1
  Ca  Ca4  1  0.879387  0.994908  0.309532  1
  Ca  Ca5  1  0.620613  0.505092  0.809532  1
  Ca  Ca6  1  0.120613  0.494908  0.690468  1
  Ca  Ca7  1  0.379387  0.005092  0.190468  1
  Sn  Sn8  1  0.110539  0.750000  0.969216  1
  Sn  Sn9  1  0.389461  0.750000  0.469216  1
  Sn  Sn10  1  0.889461  0.250000  0.030784  1
  Sn  Sn11  1  0.610539  0.250000  0.530784  1
  S  S12  1  0.894401  0.750000  0.801455  1
  S  S13  1  0.605599  0.750000  0.301455  1
  S  S14  1  0.105599  0.250000  0.198545  1
  S  S15  1  0.394401  0.250000  0.698545  1
  S  S16  1  0.097475  0.750000  0.189729  1
  S  S17  1  0.402525  0.750000  0.689729  1
  S  S18  1  0.902525  0.250000  0.810271  1
  S  S19  1  0.597475  0.250000  0.310271  1
  S  S20  1  0.275744  0.986937  0.936300  1
  S  S21  1  0.224256  0.513063  0.436300  1
  S  S22  1  0.724256  0.486937  0.063700  1
  S  S23  1  0.775744  0.013063  0.563700  1
  S  S24  1  0.724256  0.013063  0.063700  1
  S  S25  1  0.775744  0.486937  0.563700  1
  S  S26  1  0.275744  0.513063  0.936300  1
  S  S27  1  0.224256  0.986937  0.436300  1
