# generated using pymatgen
data_Mn8O13F3
_symmetry_space_group_name_H-M   'P 1'
_cell_length_a   5.54541074
_cell_length_b   6.70825692
_cell_length_c   6.73891597
_cell_angle_alpha   95.82272820
_cell_angle_beta   91.55042531
_cell_angle_gamma   91.40553792
_symmetry_Int_Tables_number   1
_chemical_formula_structural   Mn8O13F3
_chemical_formula_sum   'Mn8 O13 F3'
_cell_volume   249.20945323
_cell_formula_units_Z   1
loop_
 _symmetry_equiv_pos_site_id
 _symmetry_equiv_pos_as_xyz
  1  'x, y, z'
loop_
 _atom_site_type_symbol
 _atom_site_label
 _atom_site_symmetry_multiplicity
 _atom_site_fract_x
 _atom_site_fract_y
 _atom_site_fract_z
 _atom_site_occupancy
  Mn  Mn0  1  0.641437  0.375048  0.139775  1
  Mn  Mn1  1  0.363553  0.113138  0.373880  1
  Mn  Mn2  1  0.830924  0.880473  0.131951  1
  Mn  Mn3  1  0.849949  0.373357  0.620071  1
  Mn  Mn4  1  0.140551  0.139492  0.874745  1
  Mn  Mn5  1  0.147890  0.638353  0.372015  1
  Mn  Mn6  1  0.345814  0.625611  0.875197  1
  Mn  Mn7  1  0.645425  0.872835  0.629961  1
  O  O8  1  0.884425  0.159372  0.080003  1
  O  O9  1  0.390691  0.168641  0.093914  1
  O  O10  1  0.610753  0.324632  0.405291  1
  O  O11  1  0.386941  0.574744  0.156600  1
  O  O12  1  0.392911  0.076519  0.654723  1
  O  O13  1  0.890839  0.092752  0.669529  1
  O  O14  1  0.886175  0.596096  0.171449  1
  O  O15  1  0.113991  0.404878  0.820426  1
  O  O16  1  0.894387  0.655278  0.573303  1
  O  O17  1  0.114527  0.907502  0.323290  1
  O  O18  1  0.606091  0.921422  0.352792  1
  O  O19  1  0.389810  0.669220  0.591007  1
  O  O20  1  0.612857  0.820750  0.903992  1
  F  F21  1  0.132907  0.342337  0.407726  1
  F  F22  1  0.620071  0.409684  0.858350  1
  F  F23  1  0.107078  0.857867  0.920007  1
