# generated using pymatgen
data_Li5Mn6(BO3)6
_symmetry_space_group_name_H-M   'P 1'
_cell_length_a   8.82749895
_cell_length_b   8.82749895
_cell_length_c   14.38452119
_cell_angle_alpha   89.44451743
_cell_angle_beta   90.55548257
_cell_angle_gamma   137.73090687
_symmetry_Int_Tables_number   1
_chemical_formula_structural   Li5Mn6(BO3)6
_chemical_formula_sum   'Li10 Mn12 B12 O36'
_cell_volume   753.89842994
_cell_formula_units_Z   2
loop_
 _symmetry_equiv_pos_site_id
 _symmetry_equiv_pos_as_xyz
  1  'x, y, z'
loop_
 _atom_site_type_symbol
 _atom_site_label
 _atom_site_symmetry_multiplicity
 _atom_site_fract_x
 _atom_site_fract_y
 _atom_site_fract_z
 _atom_site_occupancy
  Li  Li0  1  0.895434  0.104566  0.990059  1
  Li  Li1  1  0.921183  0.078817  0.358407  1
  Li  Li2  1  0.684958  0.315042  0.148592  1
  Li  Li3  1  0.670328  0.329672  0.858062  1
  Li  Li4  1  0.644789  0.355211  0.491730  1
  Li  Li5  1  0.435248  0.564752  0.649395  1
  Li  Li6  1  0.419636  0.580364  0.358882  1
  Li  Li7  1  0.396001  0.603999  0.990686  1
  Li  Li8  1  0.170457  0.829543  0.859000  1
  Li  Li9  1  0.147003  0.852997  0.488354  1
  Mn  Mn10  1  0.824575  0.681179  0.010672  1
  Mn  Mn11  1  0.840943  0.663292  0.309697  1
  Mn  Mn12  1  0.575998  0.932366  0.510809  1
  Mn  Mn13  1  0.590308  0.912903  0.809543  1
  Mn  Mn14  1  0.843346  0.661627  0.680505  1
  Mn  Mn15  1  0.588336  0.907111  0.180686  1
  Mn  Mn16  1  0.092889  0.411664  0.180686  1
  Mn  Mn17  1  0.338373  0.156654  0.680505  1
  Mn  Mn18  1  0.087097  0.409692  0.809543  1
  Mn  Mn19  1  0.067634  0.424002  0.510809  1
  Mn  Mn20  1  0.336708  0.159057  0.309697  1
  Mn  Mn21  1  0.318821  0.175425  0.010672  1
  B  B22  1  0.997144  0.493891  0.996253  1
  B  B23  1  0.750196  0.249804  0.335013  1
  B  B24  1  0.000141  0.999859  0.837305  1
  B  B25  1  0.996035  0.003965  0.166338  1
  B  B26  1  0.506109  0.002856  0.996253  1
  B  B27  1  0.746929  0.743517  0.496430  1
  B  B28  1  0.498948  0.501052  0.167495  1
  B  B29  1  0.249225  0.750775  0.667655  1
  B  B30  1  0.745850  0.254150  0.666246  1
  B  B31  1  0.500797  0.499203  0.836337  1
  B  B32  1  0.251013  0.748987  0.339538  1
  B  B33  1  0.256483  0.253071  0.496430  1
  O  O34  1  0.918063  0.081937  0.127913  1
  O  O35  1  0.756802  0.243198  0.762894  1
  O  O36  1  0.819179  0.180821  0.280732  1
  O  O37  1  0.812788  0.187212  0.609771  1
  O  O38  1  0.756026  0.243974  0.430948  1
  O  O39  1  0.921688  0.078312  0.803095  1
  O  O40  1  0.828259  0.672071  0.455089  1
  O  O41  1  0.682614  0.818566  0.440018  1
  O  O42  1  0.930854  0.567056  0.939813  1
  O  O43  1  0.575351  0.919330  0.954899  1
  O  O44  1  0.975725  0.487032  0.090884  1
  O  O45  1  0.725843  0.736992  0.591117  1
  O  O46  1  0.569117  0.430883  0.780974  1
  O  O47  1  0.568098  0.431902  0.112459  1
  O  O48  1  0.507651  0.492349  0.932383  1
  O  O49  1  0.674347  0.325653  0.290818  1
  O  O50  1  0.508401  0.491599  0.264211  1
  O  O51  1  0.424678  0.575322  0.792775  1
  O  O52  1  0.421901  0.578099  0.127763  1
  O  O53  1  0.316890  0.683110  0.280074  1
  O  O54  1  0.318809  0.681191  0.613730  1
  O  O55  1  0.258139  0.741861  0.764501  1
  O  O56  1  0.263746  0.736254  0.435228  1
  O  O57  1  0.667762  0.332238  0.628228  1
  O  O58  1  0.263008  0.274157  0.591117  1
  O  O59  1  0.512968  0.024275  0.090884  1
  O  O60  1  0.080670  0.424649  0.954899  1
  O  O61  1  0.432944  0.069146  0.939813  1
  O  O62  1  0.181434  0.317386  0.440018  1
  O  O63  1  0.327929  0.171741  0.455089  1
  O  O64  1  0.066941  0.933059  0.779152  1
  O  O65  1  0.172376  0.827624  0.627268  1
  O  O66  1  0.063277  0.936723  0.110568  1
  O  O67  1  0.006799  0.993201  0.263125  1
  O  O68  1  0.011615  0.988385  0.933013  1
  O  O69  1  0.172068  0.827932  0.306494  1
