# generated using pymatgen
data_Li5Mn4O8
_symmetry_space_group_name_H-M   'P 1'
_cell_length_a   6.32822713
_cell_length_b   6.32822713
_cell_length_c   10.08675298
_cell_angle_alpha   90.00000000
_cell_angle_beta   90.00000000
_cell_angle_gamma   125.34585640
_symmetry_Int_Tables_number   1
_chemical_formula_structural   Li5Mn4O8
_chemical_formula_sum   'Li10 Mn8 O16'
_cell_volume   329.48266462
_cell_formula_units_Z   2
loop_
 _symmetry_equiv_pos_site_id
 _symmetry_equiv_pos_as_xyz
  1  'x, y, z'
loop_
 _atom_site_type_symbol
 _atom_site_label
 _atom_site_symmetry_multiplicity
 _atom_site_fract_x
 _atom_site_fract_y
 _atom_site_fract_z
 _atom_site_occupancy
  Li  Li0  1  0.875223  0.687074  0.060971  1
  Li  Li1  1  0.158394  0.841606  0.273500  1
  Li  Li2  1  0.292775  0.707225  0.059197  1
  Li  Li3  1  0.312926  0.124777  0.060971  1
  Li  Li4  1  0.687074  0.875223  0.560971  1
  Li  Li5  1  0.841606  0.158394  0.773500  1
  Li  Li6  1  0.124777  0.312926  0.560971  1
  Li  Li7  1  0.707225  0.292775  0.559197  1
  Li  Li8  1  0.472752  0.527248  0.981476  1
  Li  Li9  1  0.527248  0.472752  0.481476  1
  Mn  Mn10  1  0.180442  0.819558  0.527058  1
  Mn  Mn11  1  0.819558  0.180442  0.027058  1
  Mn  Mn12  1  0.322519  0.677481  0.787022  1
  Mn  Mn13  1  0.831359  0.670917  0.784598  1
  Mn  Mn14  1  0.329083  0.168641  0.784598  1
  Mn  Mn15  1  0.670917  0.831359  0.284598  1
  Mn  Mn16  1  0.168641  0.329083  0.284598  1
  Mn  Mn17  1  0.677481  0.322519  0.287022  1
  O  O18  1  0.370413  0.629587  0.407376  1
  O  O19  1  0.019788  0.500283  0.666496  1
  O  O20  1  0.849812  0.623718  0.405217  1
  O  O21  1  0.136734  0.863266  0.903571  1
  O  O22  1  0.499717  0.980212  0.666496  1
  O  O23  1  0.014163  0.985837  0.671883  1
  O  O24  1  0.623718  0.849812  0.905217  1
  O  O25  1  0.376282  0.150188  0.405217  1
  O  O26  1  0.985837  0.014163  0.171883  1
  O  O27  1  0.500283  0.019788  0.166496  1
  O  O28  1  0.863266  0.136734  0.403571  1
  O  O29  1  0.150188  0.376282  0.905217  1
  O  O30  1  0.980212  0.499717  0.166496  1
  O  O31  1  0.629587  0.370413  0.907376  1
  O  O32  1  0.482069  0.517931  0.171095  1
  O  O33  1  0.517931  0.482069  0.671095  1
