# generated using pymatgen
data_Mg2ZnB2Ir5
_symmetry_space_group_name_H-M   'P 1'
_cell_length_a   9.49068681
_cell_length_b   9.49068681
_cell_length_c   2.94724483
_cell_angle_alpha   90.00000000
_cell_angle_beta   90.00000000
_cell_angle_gamma   90.00000000
_symmetry_Int_Tables_number   1
_chemical_formula_structural   Mg2ZnB2Ir5
_chemical_formula_sum   'Mg4 Zn2 B4 Ir10'
_cell_volume   265.46758449
_cell_formula_units_Z   2
loop_
 _symmetry_equiv_pos_site_id
 _symmetry_equiv_pos_as_xyz
  1  'x, y, z'
loop_
 _atom_site_type_symbol
 _atom_site_label
 _atom_site_symmetry_multiplicity
 _atom_site_fract_x
 _atom_site_fract_y
 _atom_site_fract_z
 _atom_site_occupancy
  Mg  Mg0  1  0.323229  0.823229  0.000000  1
  Mg  Mg1  1  0.676771  0.176771  0.000000  1
  Mg  Mg2  1  0.176771  0.323229  0.000000  1
  Mg  Mg3  1  0.823229  0.676771  0.000000  1
  Zn  Zn4  1  0.500000  0.500000  0.000000  1
  Zn  Zn5  1  0.000000  0.000000  0.000000  1
  B  B6  1  0.126896  0.626896  0.000000  1
  B  B7  1  0.873104  0.373104  0.000000  1
  B  B8  1  0.373104  0.126896  0.000000  1
  B  B9  1  0.626896  0.873104  0.000000  1
  Ir  Ir10  1  0.570542  0.715630  0.500000  1
  Ir  Ir11  1  0.429458  0.284370  0.500000  1
  Ir  Ir12  1  0.929458  0.215630  0.500000  1
  Ir  Ir13  1  0.070542  0.784370  0.500000  1
  Ir  Ir14  1  0.784370  0.929458  0.500000  1
  Ir  Ir15  1  0.215630  0.070542  0.500000  1
  Ir  Ir16  1  0.284370  0.570542  0.500000  1
  Ir  Ir17  1  0.715630  0.429458  0.500000  1
  Ir  Ir18  1  0.000000  0.500000  0.500000  1
  Ir  Ir19  1  0.500000  0.000000  0.500000  1
