# generated using pymatgen
data_KTm2Cu3Se5
_symmetry_space_group_name_H-M   'P 1'
_cell_length_a   7.45338783
_cell_length_b   7.45338783
_cell_length_c   16.72388864
_cell_angle_alpha   90.00000000
_cell_angle_beta   90.00000000
_cell_angle_gamma   148.22790819
_symmetry_Int_Tables_number   1
_chemical_formula_structural   KTm2Cu3Se5
_chemical_formula_sum   'K2 Tm4 Cu6 Se10'
_cell_volume   489.18995063
_cell_formula_units_Z   2
loop_
 _symmetry_equiv_pos_site_id
 _symmetry_equiv_pos_as_xyz
  1  'x, y, z'
loop_
 _atom_site_type_symbol
 _atom_site_label
 _atom_site_symmetry_multiplicity
 _atom_site_fract_x
 _atom_site_fract_y
 _atom_site_fract_z
 _atom_site_occupancy
  K  K0  1  0.059410  0.940590  0.250000  1
  K  K1  1  0.940590  0.059410  0.750000  1
  Tm  Tm2  1  0.191383  0.808617  0.593373  1
  Tm  Tm3  1  0.808617  0.191383  0.093373  1
  Tm  Tm4  1  0.808617  0.191383  0.406627  1
  Tm  Tm5  1  0.191383  0.808617  0.906627  1
  Cu  Cu6  1  0.413599  0.586401  0.526371  1
  Cu  Cu7  1  0.586401  0.413599  0.026371  1
  Cu  Cu8  1  0.586401  0.413599  0.473629  1
  Cu  Cu9  1  0.413599  0.586401  0.973629  1
  Cu  Cu10  1  0.662511  0.337489  0.750000  1
  Cu  Cu11  1  0.337489  0.662511  0.250000  1
  Se  Se12  1  0.253495  0.746505  0.750000  1
  Se  Se13  1  0.746505  0.253495  0.250000  1
  Se  Se14  1  0.559162  0.440838  0.620574  1
  Se  Se15  1  0.440838  0.559162  0.120574  1
  Se  Se16  1  0.440838  0.559162  0.379426  1
  Se  Se17  1  0.559162  0.440838  0.879426  1
  Se  Se18  1  0.166006  0.833994  0.427764  1
  Se  Se19  1  0.833994  0.166006  0.927764  1
  Se  Se20  1  0.833994  0.166006  0.572236  1
  Se  Se21  1  0.166006  0.833994  0.072236  1
