# generated using pymatgen
data_Cr2N
_symmetry_space_group_name_H-M   'P 1'
_cell_length_a   4.78461379
_cell_length_b   4.78461379
_cell_length_c   4.40968377
_cell_angle_alpha   90.00000000
_cell_angle_beta   90.00000000
_cell_angle_gamma   120.00000000
_symmetry_Int_Tables_number   1
_chemical_formula_structural   Cr2N
_chemical_formula_sum   'Cr6 N3'
_cell_volume   87.42423747
_cell_formula_units_Z   3
loop_
 _symmetry_equiv_pos_site_id
 _symmetry_equiv_pos_as_xyz
  1  'x, y, z'
loop_
 _atom_site_type_symbol
 _atom_site_label
 _atom_site_symmetry_multiplicity
 _atom_site_fract_x
 _atom_site_fract_y
 _atom_site_fract_z
 _atom_site_occupancy
  Cr  Cr0  1  0.000000  0.673724  0.746519  1
  Cr  Cr1  1  0.673724  0.000000  0.746519  1
  Cr  Cr2  1  0.326276  0.326276  0.746519  1
  Cr  Cr3  1  0.673724  0.673724  0.253481  1
  Cr  Cr4  1  0.000000  0.326276  0.253481  1
  Cr  Cr5  1  0.326276  0.000000  0.253481  1
  N  N6  1  0.000000  0.000000  0.000000  1
  N  N7  1  0.666667  0.333333  0.500000  1
  N  N8  1  0.333333  0.666667  0.500000  1
