# generated using pymatgen
data_ScZn3
_symmetry_space_group_name_H-M   'P 1'
_cell_length_a   5.90739080
_cell_length_b   5.90739080
_cell_length_c   4.39406145
_cell_angle_alpha   90.00000000
_cell_angle_beta   90.00000000
_cell_angle_gamma   120.00000000
_symmetry_Int_Tables_number   1
_chemical_formula_structural   ScZn3
_chemical_formula_sum   'Sc2 Zn6'
_cell_volume   132.79696877
_cell_formula_units_Z   2
loop_
 _symmetry_equiv_pos_site_id
 _symmetry_equiv_pos_as_xyz
  1  'x, y, z'
loop_
 _atom_site_type_symbol
 _atom_site_label
 _atom_site_symmetry_multiplicity
 _atom_site_fract_x
 _atom_site_fract_y
 _atom_site_fract_z
 _atom_site_occupancy
  Sc  Sc0  1  0.333333  0.666667  0.750000  1
  Sc  Sc1  1  0.666667  0.333333  0.250000  1
  Zn  Zn2  1  0.840841  0.681682  0.750000  1
  Zn  Zn3  1  0.318318  0.159159  0.750000  1
  Zn  Zn4  1  0.159159  0.318318  0.250000  1
  Zn  Zn5  1  0.681682  0.840841  0.250000  1
  Zn  Zn6  1  0.159159  0.840841  0.250000  1
  Zn  Zn7  1  0.840841  0.159159  0.750000  1
