# generated using pymatgen
data_SmAgAs2
_symmetry_space_group_name_H-M   'P 1'
_cell_length_a   4.03215181
_cell_length_b   4.05998092
_cell_length_c   21.21717280
_cell_angle_alpha   90.00000000
_cell_angle_beta   90.00000000
_cell_angle_gamma   90.00000000
_symmetry_Int_Tables_number   1
_chemical_formula_structural   SmAgAs2
_chemical_formula_sum   'Sm4 Ag4 As8'
_cell_volume   347.33486559
_cell_formula_units_Z   4
loop_
 _symmetry_equiv_pos_site_id
 _symmetry_equiv_pos_as_xyz
  1  'x, y, z'
loop_
 _atom_site_type_symbol
 _atom_site_label
 _atom_site_symmetry_multiplicity
 _atom_site_fract_x
 _atom_site_fract_y
 _atom_site_fract_z
 _atom_site_occupancy
  Sm  Sm0  1  0.750000  0.229785  0.615259  1
  Sm  Sm1  1  0.250000  0.729785  0.884741  1
  Sm  Sm2  1  0.750000  0.270215  0.115259  1
  Sm  Sm3  1  0.250000  0.770215  0.384741  1
  Ag  Ag4  1  0.250000  0.227796  0.749983  1
  Ag  Ag5  1  0.750000  0.727796  0.750017  1
  Ag  Ag6  1  0.250000  0.272204  0.249983  1
  Ag  Ag7  1  0.750000  0.772204  0.250017  1
  As  As8  1  0.250000  0.727929  0.658584  1
  As  As9  1  0.750000  0.227929  0.841416  1
  As  As10  1  0.250000  0.772071  0.158584  1
  As  As11  1  0.750000  0.272071  0.341416  1
  As  As12  1  0.750000  0.705768  0.501405  1
  As  As13  1  0.250000  0.205768  0.998595  1
  As  As14  1  0.750000  0.794232  0.001405  1
  As  As15  1  0.250000  0.294232  0.498595  1
