# generated using pymatgen
data_InH9(NCl)3
_symmetry_space_group_name_H-M   'P 1'
_cell_length_a   5.99813544
_cell_length_b   6.95178933
_cell_length_c   10.00562271
_cell_angle_alpha   86.24036898
_cell_angle_beta   86.70085882
_cell_angle_gamma   85.39740311
_symmetry_Int_Tables_number   1
_chemical_formula_structural   InH9(NCl)3
_chemical_formula_sum   'In2 H18 N6 Cl6'
_cell_volume   414.39800648
_cell_formula_units_Z   2
loop_
 _symmetry_equiv_pos_site_id
 _symmetry_equiv_pos_as_xyz
  1  'x, y, z'
loop_
 _atom_site_type_symbol
 _atom_site_label
 _atom_site_symmetry_multiplicity
 _atom_site_fract_x
 _atom_site_fract_y
 _atom_site_fract_z
 _atom_site_occupancy
  In  In0  1  0.000000  0.500000  0.000000  1
  In  In1  1  0.500000  0.000000  0.500000  1
  H  H2  1  0.096149  0.122022  0.107575  1
  H  H3  1  0.086104  0.530741  0.721037  1
  H  H4  1  0.095150  0.850011  0.453473  1
  H  H5  1  0.308941  0.173809  0.001166  1
  H  H6  1  0.293075  0.253830  0.154042  1
  H  H7  1  0.261947  0.824340  0.316316  1
  H  H8  1  0.272190  0.362783  0.782459  1
  H  H9  1  0.293185  0.670545  0.448338  1
  H  H10  1  0.310539  0.596946  0.790291  1
  H  H11  1  0.689461  0.403054  0.209709  1
  H  H12  1  0.706815  0.329455  0.551662  1
  H  H13  1  0.727810  0.637217  0.217541  1
  H  H14  1  0.738053  0.175660  0.683684  1
  H  H15  1  0.706925  0.746170  0.845958  1
  H  H16  1  0.691059  0.826191  0.998834  1
  H  H17  1  0.904850  0.149989  0.546527  1
  H  H18  1  0.913896  0.469259  0.278963  1
  H  H19  1  0.903851  0.877978  0.892425  1
  N  N20  1  0.200225  0.227055  0.075077  1
  N  N21  1  0.193481  0.497284  0.796905  1
  N  N22  1  0.256527  0.813810  0.419583  1
  N  N23  1  0.743473  0.186190  0.580417  1
  N  N24  1  0.806519  0.502716  0.203095  1
  N  N25  1  0.799775  0.772945  0.924923  1
  Cl  Cl26  1  0.261892  0.309140  0.417348  1
  Cl  Cl27  1  0.284482  0.711040  0.088138  1
  Cl  Cl28  1  0.271297  0.997474  0.726611  1
  Cl  Cl29  1  0.728703  0.002526  0.273389  1
  Cl  Cl30  1  0.715518  0.288960  0.911862  1
  Cl  Cl31  1  0.738108  0.690860  0.582652  1
