# generated using pymatgen
data_Fe2O3F
_symmetry_space_group_name_H-M   'P 1'
_cell_length_a   4.69329920
_cell_length_b   4.69329920
_cell_length_c   15.00823545
_cell_angle_alpha   90.00000000
_cell_angle_beta   90.00000000
_cell_angle_gamma   94.24956644
_symmetry_Int_Tables_number   1
_chemical_formula_structural   Fe2O3F
_chemical_formula_sum   'Fe10 O15 F5'
_cell_volume   329.67839467
_cell_formula_units_Z   5
loop_
 _symmetry_equiv_pos_site_id
 _symmetry_equiv_pos_as_xyz
  1  'x, y, z'
loop_
 _atom_site_type_symbol
 _atom_site_label
 _atom_site_symmetry_multiplicity
 _atom_site_fract_x
 _atom_site_fract_y
 _atom_site_fract_z
 _atom_site_occupancy
  Fe  Fe0  1  0.997805  0.002195  0.800099  1
  Fe  Fe1  1  0.999679  0.000321  0.600069  1
  Fe  Fe2  1  0.999679  0.000321  0.399931  1
  Fe  Fe3  1  0.997805  0.002195  0.199901  1
  Fe  Fe4  1  0.987282  0.012718  0.000000  1
  Fe  Fe5  1  0.465784  0.534216  0.699869  1
  Fe  Fe6  1  0.465784  0.534216  0.300131  1
  Fe  Fe7  1  0.532599  0.467401  0.500000  1
  Fe  Fe8  1  0.527088  0.472912  0.100339  1
  Fe  Fe9  1  0.527088  0.472912  0.899661  1
  O  O10  1  0.821879  0.178121  0.500000  1
  O  O11  1  0.817028  0.182972  0.102559  1
  O  O12  1  0.817028  0.182972  0.897441  1
  O  O13  1  0.302354  0.311264  0.800395  1
  O  O14  1  0.306865  0.307292  0.599875  1
  O  O15  1  0.306865  0.307292  0.400125  1
  O  O16  1  0.302354  0.311264  0.199605  1
  O  O17  1  0.316978  0.297266  0.000000  1
  O  O18  1  0.688736  0.697646  0.800395  1
  O  O19  1  0.692708  0.693135  0.599875  1
  O  O20  1  0.692708  0.693135  0.400125  1
  O  O21  1  0.688736  0.697646  0.199605  1
  O  O22  1  0.702734  0.683022  0.000000  1
  O  O23  1  0.175680  0.824320  0.700818  1
  O  O24  1  0.175680  0.824320  0.299182  1
  F  F25  1  0.796931  0.203069  0.699741  1
  F  F26  1  0.796931  0.203069  0.300259  1
  F  F27  1  0.201229  0.798771  0.500000  1
  F  F28  1  0.197990  0.802010  0.901648  1
  F  F29  1  0.197990  0.802010  0.098352  1
