# generated using pymatgen
data_Li2FeF4
_symmetry_space_group_name_H-M   'P 1'
_cell_length_a   6.05259475
_cell_length_b   6.05259475
_cell_length_c   8.57785765
_cell_angle_alpha   90.00000000
_cell_angle_beta   90.00000000
_cell_angle_gamma   90.00000000
_symmetry_Int_Tables_number   1
_chemical_formula_structural   Li2FeF4
_chemical_formula_sum   'Li8 Fe4 F16'
_cell_volume   314.24040686
_cell_formula_units_Z   4
loop_
 _symmetry_equiv_pos_site_id
 _symmetry_equiv_pos_as_xyz
  1  'x, y, z'
loop_
 _atom_site_type_symbol
 _atom_site_label
 _atom_site_symmetry_multiplicity
 _atom_site_fract_x
 _atom_site_fract_y
 _atom_site_fract_z
 _atom_site_occupancy
  Li  Li0  1  0.256515  0.256515  0.375000  1
  Li  Li1  1  0.256515  0.743485  0.125000  1
  Li  Li2  1  0.269438  0.500000  0.750000  1
  Li  Li3  1  0.500000  0.269438  0.000000  1
  Li  Li4  1  0.500000  0.730562  0.500000  1
  Li  Li5  1  0.730562  0.500000  0.250000  1
  Li  Li6  1  0.743485  0.256515  0.625000  1
  Li  Li7  1  0.743485  0.743485  0.875000  1
  Fe  Fe8  1  0.000000  0.260850  0.000000  1
  Fe  Fe9  1  0.000000  0.739150  0.500000  1
  Fe  Fe10  1  0.260850  0.000000  0.750000  1
  Fe  Fe11  1  0.739150  0.000000  0.250000  1
  F  F12  1  0.019709  0.247987  0.750718  1
  F  F13  1  0.019709  0.752013  0.749282  1
  F  F14  1  0.247987  0.019709  0.999282  1
  F  F15  1  0.247987  0.980291  0.500718  1
  F  F16  1  0.248200  0.483446  0.992941  1
  F  F17  1  0.248200  0.516554  0.507059  1
  F  F18  1  0.483446  0.248200  0.757059  1
  F  F19  1  0.483446  0.751800  0.742941  1
  F  F20  1  0.516554  0.248200  0.242941  1
  F  F21  1  0.516554  0.751800  0.257059  1
  F  F22  1  0.751800  0.516554  0.492941  1
  F  F23  1  0.751800  0.483446  0.007059  1
  F  F24  1  0.752013  0.980291  0.499282  1
  F  F25  1  0.752013  0.019709  0.000718  1
  F  F26  1  0.980291  0.247987  0.249282  1
  F  F27  1  0.980291  0.752013  0.250718  1
