# generated using pymatgen
data_Li2Fe(CuO3)2
_symmetry_space_group_name_H-M   'P 1'
_cell_length_a   6.61089848
_cell_length_b   6.61089848
_cell_length_c   5.96854585
_cell_angle_alpha   75.66672146
_cell_angle_beta   104.33327854
_cell_angle_gamma   154.07864920
_symmetry_Int_Tables_number   1
_chemical_formula_structural   Li2Fe(CuO3)2
_chemical_formula_sum   'Li2 Fe1 Cu2 O6'
_cell_volume   110.28622731
_cell_formula_units_Z   1
loop_
 _symmetry_equiv_pos_site_id
 _symmetry_equiv_pos_as_xyz
  1  'x, y, z'
loop_
 _atom_site_type_symbol
 _atom_site_label
 _atom_site_symmetry_multiplicity
 _atom_site_fract_x
 _atom_site_fract_y
 _atom_site_fract_z
 _atom_site_occupancy
  Li  Li0  1  0.664264  0.335736  0.319366  1
  Li  Li1  1  0.335736  0.664264  0.680634  1
  Fe  Fe2  1  0.000000  1.000000  0.500000  1
  Cu  Cu3  1  0.664012  0.335988  0.837490  1
  Cu  Cu4  1  0.335988  0.664012  0.162510  1
  O  O5  1  0.835950  0.164050  0.400217  1
  O  O6  1  0.505020  0.494980  0.721405  1
  O  O7  1  0.178343  0.821657  0.072637  1
  O  O8  1  0.494980  0.505020  0.278595  1
  O  O9  1  0.164050  0.835950  0.599783  1
  O  O10  1  0.821657  0.178343  0.927363  1
