# generated using pymatgen
data_Mn8O13F3
_symmetry_space_group_name_H-M   'P 1'
_cell_length_a   5.00523465
_cell_length_b   5.53659195
_cell_length_c   9.01737728
_cell_angle_alpha   89.24659464
_cell_angle_beta   89.50422793
_cell_angle_gamma   89.68148941
_symmetry_Int_Tables_number   1
_chemical_formula_structural   Mn8O13F3
_chemical_formula_sum   'Mn8 O13 F3'
_cell_volume   249.85437252
_cell_formula_units_Z   1
loop_
 _symmetry_equiv_pos_site_id
 _symmetry_equiv_pos_as_xyz
  1  'x, y, z'
loop_
 _atom_site_type_symbol
 _atom_site_label
 _atom_site_symmetry_multiplicity
 _atom_site_fract_x
 _atom_site_fract_y
 _atom_site_fract_z
 _atom_site_occupancy
  Mn  Mn0  1  0.749434  0.170949  0.005249  1
  Mn  Mn1  1  0.265194  0.860188  0.005499  1
  Mn  Mn2  1  0.262919  0.355879  0.247279  1
  Mn  Mn3  1  0.747104  0.664982  0.247495  1
  Mn  Mn4  1  0.247620  0.850812  0.499315  1
  Mn  Mn5  1  0.746880  0.116433  0.499437  1
  Mn  Mn6  1  0.233253  0.353848  0.755420  1
  Mn  Mn7  1  0.746249  0.652593  0.746418  1
  O  O8  1  0.084967  0.119089  0.116609  1
  O  O9  1  0.585696  0.897113  0.111168  1
  O  O10  1  0.588152  0.397694  0.137475  1
  O  O11  1  0.083679  0.617438  0.136879  1
  O  O12  1  0.424338  0.610760  0.367669  1
  O  O13  1  0.424441  0.105438  0.383212  1
  O  O14  1  0.924863  0.885587  0.385294  1
  O  O15  1  0.068149  0.101430  0.616549  1
  O  O16  1  0.569748  0.881006  0.613190  1
  O  O17  1  0.075043  0.605102  0.629235  1
  O  O18  1  0.912250  0.393132  0.863811  1
  O  O19  1  0.416132  0.613436  0.862403  1
  O  O20  1  0.424756  0.117251  0.884783  1
  F  F21  1  0.917850  0.372703  0.374080  1
  F  F22  1  0.567460  0.360848  0.624942  1
  F  F23  1  0.933822  0.896288  0.886589  1
