# generated using pymatgen
data_V3(O2F)2
_symmetry_space_group_name_H-M   'P 1'
_cell_length_a   4.72063043
_cell_length_b   4.72063043
_cell_length_c   9.14123076
_cell_angle_alpha   89.91690636
_cell_angle_beta   90.08309364
_cell_angle_gamma   94.24410518
_symmetry_Int_Tables_number   1
_chemical_formula_structural   V3(O2F)2
_chemical_formula_sum   'V6 O8 F4'
_cell_volume   203.14740029
_cell_formula_units_Z   2
loop_
 _symmetry_equiv_pos_site_id
 _symmetry_equiv_pos_as_xyz
  1  'x, y, z'
loop_
 _atom_site_type_symbol
 _atom_site_label
 _atom_site_symmetry_multiplicity
 _atom_site_fract_x
 _atom_site_fract_y
 _atom_site_fract_z
 _atom_site_occupancy
  V  V0  1  0.003233  0.996767  0.326717  1
  V  V1  1  0.000000  0.000000  0.000000  1
  V  V2  1  0.996767  0.003233  0.673283  1
  V  V3  1  0.455918  0.544082  0.165517  1
  V  V4  1  0.500000  0.500000  0.500000  1
  V  V5  1  0.544082  0.455918  0.834483  1
  O  O6  1  0.803269  0.196731  0.836310  1
  O  O7  1  0.691879  0.700805  0.330249  1
  O  O8  1  0.692099  0.692099  0.000000  1
  O  O9  1  0.700805  0.691879  0.669751  1
  O  O10  1  0.299195  0.308121  0.330249  1
  O  O11  1  0.307901  0.307901  0.000000  1
  O  O12  1  0.308121  0.299195  0.669751  1
  O  O13  1  0.196731  0.803269  0.163690  1
  F  F14  1  0.798389  0.201611  0.164658  1
  F  F15  1  0.805925  0.194075  0.498680  1
  F  F16  1  0.194075  0.805925  0.501320  1
  F  F17  1  0.201611  0.798389  0.835342  1
