# generated using pymatgen
data_LiFePO4
_symmetry_space_group_name_H-M   'P 1'
_cell_length_a   4.97094816
_cell_length_b   6.31792510
_cell_length_c   9.39610570
_cell_angle_alpha   90.00000000
_cell_angle_beta   90.00000000
_cell_angle_gamma   90.00000000
_symmetry_Int_Tables_number   1
_chemical_formula_structural   LiFePO4
_chemical_formula_sum   'Li4 Fe4 P4 O16'
_cell_volume   295.09483018
_cell_formula_units_Z   4
loop_
 _symmetry_equiv_pos_site_id
 _symmetry_equiv_pos_as_xyz
  1  'x, y, z'
loop_
 _atom_site_type_symbol
 _atom_site_label
 _atom_site_symmetry_multiplicity
 _atom_site_fract_x
 _atom_site_fract_y
 _atom_site_fract_z
 _atom_site_occupancy
  Li  Li0  1  0.524258  0.750000  0.168829  1
  Li  Li1  1  0.024258  0.250000  0.331171  1
  Li  Li2  1  0.975742  0.750000  0.668829  1
  Li  Li3  1  0.475742  0.250000  0.831171  1
  Fe  Fe4  1  0.000000  0.500000  0.000000  1
  Fe  Fe5  1  0.000000  0.000000  0.000000  1
  Fe  Fe6  1  0.500000  0.500000  0.500000  1
  Fe  Fe7  1  0.500000  0.000000  0.500000  1
  P  P8  1  0.528714  0.250000  0.177782  1
  P  P9  1  0.028714  0.750000  0.322218  1
  P  P10  1  0.971286  0.250000  0.677782  1
  P  P11  1  0.471286  0.750000  0.822218  1
  O  O12  1  0.660210  0.452937  0.117552  1
  O  O13  1  0.660210  0.047063  0.117552  1
  O  O14  1  0.222609  0.250000  0.139753  1
  O  O15  1  0.084714  0.750000  0.156758  1
  O  O16  1  0.584714  0.250000  0.343242  1
  O  O17  1  0.722609  0.750000  0.360247  1
  O  O18  1  0.160210  0.952937  0.382448  1
  O  O19  1  0.160210  0.547063  0.382448  1
  O  O20  1  0.839790  0.452937  0.617552  1
  O  O21  1  0.839790  0.047063  0.617552  1
  O  O22  1  0.277391  0.250000  0.639753  1
  O  O23  1  0.415286  0.750000  0.656758  1
  O  O24  1  0.915286  0.250000  0.843242  1
  O  O25  1  0.777391  0.750000  0.860247  1
  O  O26  1  0.339790  0.952937  0.882448  1
  O  O27  1  0.339790  0.547063  0.882448  1
