# generated using pymatgen
data_LiNi4(PO4)3
_symmetry_space_group_name_H-M   'P 1'
_cell_length_a   7.40035464
_cell_length_b   7.77383075
_cell_length_c   9.57749480
_cell_angle_alpha   110.03718890
_cell_angle_beta   111.56999269
_cell_angle_gamma   94.85955313
_symmetry_Int_Tables_number   1
_chemical_formula_structural   LiNi4(PO4)3
_chemical_formula_sum   'Li2 Ni8 P6 O24'
_cell_volume   467.17825689
_cell_formula_units_Z   2
loop_
 _symmetry_equiv_pos_site_id
 _symmetry_equiv_pos_as_xyz
  1  'x, y, z'
loop_
 _atom_site_type_symbol
 _atom_site_label
 _atom_site_symmetry_multiplicity
 _atom_site_fract_x
 _atom_site_fract_y
 _atom_site_fract_z
 _atom_site_occupancy
  Li  Li0  1  0.360415  0.182233  0.388341  1
  Li  Li1  1  0.639585  0.817767  0.611659  1
  Ni  Ni2  1  0.012841  0.792393  0.444969  1
  Ni  Ni3  1  0.278096  0.904091  0.921879  1
  Ni  Ni4  1  0.285869  0.536941  0.934249  1
  Ni  Ni5  1  0.289108  0.601567  0.291531  1
  Ni  Ni6  1  0.710892  0.398433  0.708469  1
  Ni  Ni7  1  0.714131  0.463059  0.065751  1
  Ni  Ni8  1  0.721904  0.095909  0.078121  1
  Ni  Ni9  1  0.987159  0.207607  0.555031  1
  P  P10  1  0.022932  0.245975  0.935077  1
  P  P11  1  0.311246  0.550879  0.608844  1
  P  P12  1  0.404259  0.134934  0.747531  1
  P  P13  1  0.595741  0.865066  0.252469  1
  P  P14  1  0.688754  0.449121  0.391156  1
  P  P15  1  0.977068  0.754025  0.064923  1
  O  O16  1  0.142258  0.747770  0.000836  1
  O  O17  1  0.086619  0.062454  0.908475  1
  O  O18  1  0.178614  0.048838  0.627041  1
  O  O19  1  0.257804  0.632510  0.758877  1
  O  O20  1  0.197267  0.339478  0.506356  1
  O  O21  1  0.052763  0.722385  0.229990  1
  O  O22  1  0.432686  0.338039  0.871538  1
  O  O23  1  0.245038  0.669001  0.502262  1
  O  O24  1  0.471141  0.013391  0.850490  1
  O  O25  1  0.197515  0.421800  0.058904  1
  O  O26  1  0.538096  0.578412  0.662302  1
  O  O27  1  0.532053  0.143367  0.653486  1
  O  O28  1  0.467947  0.856633  0.346514  1
  O  O29  1  0.461904  0.421588  0.337698  1
  O  O30  1  0.802485  0.578200  0.941096  1
  O  O31  1  0.528859  0.986609  0.149510  1
  O  O32  1  0.754962  0.330999  0.497738  1
  O  O33  1  0.567314  0.661961  0.128462  1
  O  O34  1  0.947237  0.277615  0.770010  1
  O  O35  1  0.802733  0.660522  0.493644  1
  O  O36  1  0.742196  0.367490  0.241123  1
  O  O37  1  0.821386  0.951162  0.372959  1
  O  O38  1  0.913381  0.937546  0.091525  1
  O  O39  1  0.857742  0.252230  0.999164  1
