# generated using pymatgen
data_Co2O3F
_symmetry_space_group_name_H-M   'P 1'
_cell_length_a   6.75076439
_cell_length_b   6.75076439
_cell_length_c   6.32691561
_cell_angle_alpha   90.00000000
_cell_angle_beta   90.00000000
_cell_angle_gamma   128.11768973
_symmetry_Int_Tables_number   1
_chemical_formula_structural   Co2O3F
_chemical_formula_sum   'Co8 O12 F4'
_cell_volume   226.84627224
_cell_formula_units_Z   4
loop_
 _symmetry_equiv_pos_site_id
 _symmetry_equiv_pos_as_xyz
  1  'x, y, z'
loop_
 _atom_site_type_symbol
 _atom_site_label
 _atom_site_symmetry_multiplicity
 _atom_site_fract_x
 _atom_site_fract_y
 _atom_site_fract_z
 _atom_site_occupancy
  Co  Co0  1  0.874935  0.125065  0.777208  1
  Co  Co1  1  0.374935  0.625065  0.722792  1
  Co  Co2  1  0.874510  0.625490  0.750000  1
  Co  Co3  1  0.625490  0.874510  0.250000  1
  Co  Co4  1  0.125490  0.374510  0.250000  1
  Co  Co5  1  0.374510  0.125490  0.750000  1
  Co  Co6  1  0.625065  0.374935  0.277208  1
  Co  Co7  1  0.125065  0.874935  0.222792  1
  O  O8  1  0.027756  0.472244  0.750000  1
  O  O9  1  0.527756  0.972244  0.750000  1
  O  O10  1  0.376159  0.623841  0.439833  1
  O  O11  1  0.623841  0.376159  0.560167  1
  O  O12  1  0.876159  0.123841  0.060167  1
  O  O13  1  0.972244  0.527756  0.250000  1
  O  O14  1  0.221928  0.278072  0.750000  1
  O  O15  1  0.472244  0.027756  0.250000  1
  O  O16  1  0.721928  0.778072  0.750000  1
  O  O17  1  0.278072  0.221928  0.250000  1
  O  O18  1  0.778072  0.721928  0.250000  1
  O  O19  1  0.123841  0.876159  0.939833  1
  F  F20  1  0.873842  0.126158  0.471502  1
  F  F21  1  0.126158  0.873842  0.528498  1
  F  F22  1  0.373842  0.626158  0.028498  1
  F  F23  1  0.626158  0.373842  0.971502  1
