# generated using pymatgen
data_Mg3TcH7
_symmetry_space_group_name_H-M   'P 1'
_cell_length_a   4.84093063
_cell_length_b   4.84093063
_cell_length_c   10.53720642
_cell_angle_alpha   90.00000000
_cell_angle_beta   90.00000000
_cell_angle_gamma   120.00000000
_symmetry_Int_Tables_number   1
_chemical_formula_structural   Mg3TcH7
_chemical_formula_sum   'Mg6 Tc2 H14'
_cell_volume   213.85225688
_cell_formula_units_Z   2
loop_
 _symmetry_equiv_pos_site_id
 _symmetry_equiv_pos_as_xyz
  1  'x, y, z'
loop_
 _atom_site_type_symbol
 _atom_site_label
 _atom_site_symmetry_multiplicity
 _atom_site_fract_x
 _atom_site_fract_y
 _atom_site_fract_z
 _atom_site_occupancy
  Mg  Mg0  1  0.000000  0.000000  0.750000  1
  Mg  Mg1  1  0.000000  0.000000  0.250000  1
  Mg  Mg2  1  0.666667  0.333333  0.567420  1
  Mg  Mg3  1  0.333333  0.666667  0.432580  1
  Mg  Mg4  1  0.333333  0.666667  0.067420  1
  Mg  Mg5  1  0.666667  0.333333  0.932580  1
  Tc  Tc6  1  0.000000  0.000000  0.500000  1
  Tc  Tc7  1  0.000000  0.000000  0.000000  1
  H  H8  1  0.666667  0.333333  0.750000  1
  H  H9  1  0.333333  0.666667  0.250000  1
  H  H10  1  0.831397  0.662794  0.098100  1
  H  H11  1  0.831397  0.168603  0.098100  1
  H  H12  1  0.337206  0.168603  0.098100  1
  H  H13  1  0.168603  0.337206  0.901900  1
  H  H14  1  0.168603  0.831397  0.901900  1
  H  H15  1  0.662794  0.831397  0.901900  1
  H  H16  1  0.168603  0.337206  0.598100  1
  H  H17  1  0.168603  0.831397  0.598100  1
  H  H18  1  0.662794  0.831397  0.598100  1
  H  H19  1  0.831397  0.662794  0.401900  1
  H  H20  1  0.831397  0.168603  0.401900  1
  H  H21  1  0.337206  0.168603  0.401900  1
