# generated using pymatgen
data_PHPb2F10
_symmetry_space_group_name_H-M   'P 1'
_cell_length_a   4.65816960
_cell_length_b   4.84347817
_cell_length_c   8.92980709
_cell_angle_alpha   86.17547589
_cell_angle_beta   76.64117799
_cell_angle_gamma   81.78749579
_symmetry_Int_Tables_number   1
_chemical_formula_structural   PHPb2F10
_chemical_formula_sum   'P1 H1 Pb2 F10'
_cell_volume   193.89162278
_cell_formula_units_Z   1
loop_
 _symmetry_equiv_pos_site_id
 _symmetry_equiv_pos_as_xyz
  1  'x, y, z'
loop_
 _atom_site_type_symbol
 _atom_site_label
 _atom_site_symmetry_multiplicity
 _atom_site_fract_x
 _atom_site_fract_y
 _atom_site_fract_z
 _atom_site_occupancy
  P  P0  1  0.000000  0.500000  0.000000  1
  H  H1  1  0.500000  0.500000  0.500000  1
  Pb  Pb2  1  0.324931  0.031873  0.314275  1
  Pb  Pb3  1  0.675069  0.968127  0.685725  1
  F  F4  1  0.679933  0.700720  0.034393  1
  F  F5  1  0.843783  0.240706  0.096238  1
  F  F6  1  0.066596  0.596609  0.159771  1
  F  F7  1  0.388038  0.527160  0.396619  1
  F  F8  1  0.788935  0.978737  0.414555  1
  F  F9  1  0.211065  0.021263  0.585445  1
  F  F10  1  0.611962  0.472840  0.603381  1
  F  F11  1  0.933404  0.403391  0.840229  1
  F  F12  1  0.156217  0.759294  0.903762  1
  F  F13  1  0.320067  0.299280  0.965607  1
