# generated using pymatgen
data_Mn4O7F
_symmetry_space_group_name_H-M   'P 1'
_cell_length_a   7.39932220
_cell_length_b   7.39932220
_cell_length_c   4.46117932
_cell_angle_alpha   89.89017608
_cell_angle_beta   90.10982392
_cell_angle_gamma   84.66404909
_symmetry_Int_Tables_number   1
_chemical_formula_structural   Mn4O7F
_chemical_formula_sum   'Mn8 O14 F2'
_cell_volume   243.19000054
_cell_formula_units_Z   2
loop_
 _symmetry_equiv_pos_site_id
 _symmetry_equiv_pos_as_xyz
  1  'x, y, z'
loop_
 _atom_site_type_symbol
 _atom_site_label
 _atom_site_symmetry_multiplicity
 _atom_site_fract_x
 _atom_site_fract_y
 _atom_site_fract_z
 _atom_site_occupancy
  Mn  Mn0  1  0.949548  0.437042  0.476942  1
  Mn  Mn1  1  0.050443  0.050443  0.500000  1
  Mn  Mn2  1  0.437042  0.949548  0.523058  1
  Mn  Mn3  1  0.554079  0.554079  0.500000  1
  Mn  Mn4  1  0.210443  0.699424  0.014254  1
  Mn  Mn5  1  0.302600  0.302600  0.000000  1
  Mn  Mn6  1  0.699424  0.210443  0.985746  1
  Mn  Mn7  1  0.800952  0.800952  0.000000  1
  O  O8  1  0.019452  0.842002  0.231413  1
  O  O9  1  0.153979  0.480880  0.224718  1
  O  O10  1  0.517605  0.347187  0.231651  1
  O  O11  1  0.264929  0.093545  0.271821  1
  O  O12  1  0.407611  0.737458  0.275532  1
  O  O13  1  0.905457  0.229582  0.259308  1
  O  O14  1  0.767309  0.592153  0.265277  1
  O  O15  1  0.229582  0.905457  0.740692  1
  O  O16  1  0.737458  0.407611  0.724468  1
  O  O17  1  0.093545  0.264929  0.728179  1
  O  O18  1  0.592153  0.767309  0.734723  1
  O  O19  1  0.480880  0.153979  0.775282  1
  O  O20  1  0.842002  0.019452  0.768587  1
  O  O21  1  0.347187  0.517605  0.768349  1
  F  F22  1  0.642315  0.994001  0.259828  1
  F  F23  1  0.994001  0.642315  0.740172  1
