# generated using pymatgen
data_Co3(OF2)2
_symmetry_space_group_name_H-M   'P 1'
_cell_length_a   5.50760071
_cell_length_b   5.57278085
_cell_length_c   7.13662519
_cell_angle_alpha   73.76559026
_cell_angle_beta   73.51580533
_cell_angle_gamma   72.03467738
_symmetry_Int_Tables_number   1
_chemical_formula_structural   Co3(OF2)2
_chemical_formula_sum   'Co6 O4 F8'
_cell_volume   195.31948657
_cell_formula_units_Z   2
loop_
 _symmetry_equiv_pos_site_id
 _symmetry_equiv_pos_as_xyz
  1  'x, y, z'
loop_
 _atom_site_type_symbol
 _atom_site_label
 _atom_site_symmetry_multiplicity
 _atom_site_fract_x
 _atom_site_fract_y
 _atom_site_fract_z
 _atom_site_occupancy
  Co  Co0  1  0.694261  0.678089  0.840588  1
  Co  Co1  1  0.691785  0.632310  0.322183  1
  Co  Co2  1  0.308215  0.367690  0.677817  1
  Co  Co3  1  0.305739  0.321911  0.159412  1
  Co  Co4  1  0.000000  0.000000  0.500000  1
  Co  Co5  1  0.000000  0.000000  0.000000  1
  O  O6  1  0.022303  0.666711  0.668279  1
  O  O7  1  0.209857  0.235458  0.967884  1
  O  O8  1  0.790143  0.764542  0.032116  1
  O  O9  1  0.977697  0.333289  0.331721  1
  F  F10  1  0.377256  0.942029  0.336681  1
  F  F11  1  0.581844  0.574203  0.634080  1
  F  F12  1  0.910010  0.889222  0.297320  1
  F  F13  1  0.418156  0.425797  0.365920  1
  F  F14  1  0.089990  0.110778  0.702680  1
  F  F15  1  0.622744  0.057971  0.663319  1
  F  F16  1  0.321022  0.703806  0.993694  1
  F  F17  1  0.678978  0.296194  0.006306  1
