# generated using pymatgen
data_V6O5F19
_symmetry_space_group_name_H-M   'P 1'
_cell_length_a   5.29305033
_cell_length_b   5.49263730
_cell_length_c   14.76392011
_cell_angle_alpha   100.38197082
_cell_angle_beta   89.89354121
_cell_angle_gamma   90.80717485
_symmetry_Int_Tables_number   1
_chemical_formula_structural   V6O5F19
_chemical_formula_sum   'V6 O5 F19'
_cell_volume   422.15934974
_cell_formula_units_Z   1
loop_
 _symmetry_equiv_pos_site_id
 _symmetry_equiv_pos_as_xyz
  1  'x, y, z'
loop_
 _atom_site_type_symbol
 _atom_site_label
 _atom_site_symmetry_multiplicity
 _atom_site_fract_x
 _atom_site_fract_y
 _atom_site_fract_z
 _atom_site_occupancy
  V  V0  1  0.031803  0.958878  0.996501  1
  V  V1  1  0.522938  0.876074  0.669305  1
  V  V2  1  0.975492  0.723814  0.336257  1
  V  V3  1  0.540521  0.470009  0.003517  1
  V  V4  1  0.007113  0.348541  0.666074  1
  V  V5  1  0.518823  0.219592  0.335585  1
  O  O6  1  0.789746  0.965923  0.357734  1
  O  O7  1  0.711138  0.463529  0.356294  1
  O  O8  1  0.778127  0.302449  0.020323  1
  O  O9  1  0.206223  0.716623  0.979402  1
  O  O10  1  0.703215  0.126668  0.689112  1
  F  F11  1  0.720284  0.790781  0.026937  1
  F  F12  1  0.275775  0.859841  0.309251  1
  F  F13  1  0.902533  0.957581  0.885322  1
  F  F14  1  0.576463  0.768479  0.550692  1
  F  F15  1  0.918163  0.603422  0.218417  1
  F  F16  1  0.401423  0.864139  0.780277  1
  F  F17  1  0.082737  0.690801  0.447057  1
  F  F18  1  0.406303  0.546430  0.115049  1
  F  F19  1  0.796185  0.647099  0.692258  1
  F  F20  1  0.296367  0.523068  0.643019  1
  F  F21  1  0.226412  0.356424  0.308241  1
  F  F22  1  0.563506  0.477037  0.883992  1
  F  F23  1  0.906254  0.287296  0.550068  1
  F  F24  1  0.580085  0.097497  0.218303  1
  F  F25  1  0.072935  0.361625  0.784092  1
  F  F26  1  0.416446  0.189383  0.447585  1
  F  F27  1  0.069465  0.073132  0.115933  1
  F  F28  1  0.287615  0.202241  0.972726  1
  F  F29  1  0.215912  0.031623  0.640675  1
