# generated using pymatgen
data_Ba3Dy4O9
_symmetry_space_group_name_H-M   'P 1'
_cell_length_a   9.26097227
_cell_length_b   9.26097227
_cell_length_c   9.26097227
_cell_angle_alpha   38.79252022
_cell_angle_beta   38.79252022
_cell_angle_gamma   38.79252022
_symmetry_Int_Tables_number   1
_chemical_formula_structural   Ba3Dy4O9
_chemical_formula_sum   'Ba3 Dy4 O9'
_cell_volume   280.25791209
_cell_formula_units_Z   1
loop_
 _symmetry_equiv_pos_site_id
 _symmetry_equiv_pos_as_xyz
  1  'x, y, z'
loop_
 _atom_site_type_symbol
 _atom_site_label
 _atom_site_symmetry_multiplicity
 _atom_site_fract_x
 _atom_site_fract_y
 _atom_site_fract_z
 _atom_site_occupancy
  Ba  Ba0  1  0.002603  0.002603  0.002603  1
  Ba  Ba1  1  0.836433  0.836433  0.836433  1
  Ba  Ba2  1  0.424590  0.424590  0.424590  1
  Dy  Dy3  1  0.575612  0.575612  0.575612  1
  Dy  Dy4  1  0.137283  0.137283  0.137283  1
  Dy  Dy5  1  0.263171  0.263171  0.263171  1
  Dy  Dy6  1  0.700866  0.700866  0.700866  1
  O  O7  1  0.416186  0.958895  0.547936  1
  O  O8  1  0.958895  0.547936  0.416186  1
  O  O9  1  0.547936  0.416186  0.958895  1
  O  O10  1  0.298405  0.874379  0.413749  1
  O  O11  1  0.874379  0.413749  0.298405  1
  O  O12  1  0.413749  0.298405  0.874379  1
  O  O13  1  0.420607  0.854941  0.982244  1
  O  O14  1  0.982244  0.420607  0.854941  1
  O  O15  1  0.854941  0.982244  0.420607  1
