# generated using pymatgen
data_ZrCuF6
_symmetry_space_group_name_H-M   'P 1'
_cell_length_a   5.73104746
_cell_length_b   5.73104746
_cell_length_c   5.73104746
_cell_angle_alpha   59.01369047
_cell_angle_beta   59.01369047
_cell_angle_gamma   59.01369047
_symmetry_Int_Tables_number   1
_chemical_formula_structural   ZrCuF6
_chemical_formula_sum   'Zr1 Cu1 F6'
_cell_volume   130.10841582
_cell_formula_units_Z   1
loop_
 _symmetry_equiv_pos_site_id
 _symmetry_equiv_pos_as_xyz
  1  'x, y, z'
loop_
 _atom_site_type_symbol
 _atom_site_label
 _atom_site_symmetry_multiplicity
 _atom_site_fract_x
 _atom_site_fract_y
 _atom_site_fract_z
 _atom_site_occupancy
  Zr  Zr0  1  0.500000  0.500000  0.500000  1
  Cu  Cu1  1  0.000000  0.000000  0.000000  1
  F  F2  1  0.303931  0.750775  0.194850  1
  F  F3  1  0.805150  0.696069  0.249225  1
  F  F4  1  0.750775  0.194850  0.303931  1
  F  F5  1  0.696069  0.249225  0.805150  1
  F  F6  1  0.249225  0.805150  0.696069  1
  F  F7  1  0.194850  0.303931  0.750775  1
