# generated using pymatgen
data_Mn3OF5
_symmetry_space_group_name_H-M   'P 1'
_cell_length_a   5.87084484
_cell_length_b   5.87084484
_cell_length_c   7.57960061
_cell_angle_alpha   73.36360678
_cell_angle_beta   106.63639322
_cell_angle_gamma   106.33650328
_symmetry_Int_Tables_number   1
_chemical_formula_structural   Mn3OF5
_chemical_formula_sum   'Mn6 O2 F10'
_cell_volume   234.11100387
_cell_formula_units_Z   2
loop_
 _symmetry_equiv_pos_site_id
 _symmetry_equiv_pos_as_xyz
  1  'x, y, z'
loop_
 _atom_site_type_symbol
 _atom_site_label
 _atom_site_symmetry_multiplicity
 _atom_site_fract_x
 _atom_site_fract_y
 _atom_site_fract_z
 _atom_site_occupancy
  Mn  Mn0  1  0.321202  0.678798  0.848174  1
  Mn  Mn1  1  0.667183  0.332817  0.682596  1
  Mn  Mn2  1  0.332817  0.667183  0.317404  1
  Mn  Mn3  1  0.678798  0.321202  0.151826  1
  Mn  Mn4  1  0.000000  0.000000  0.500000  1
  Mn  Mn5  1  0.000000  0.000000  0.000000  1
  O  O6  1  0.786000  0.214000  0.964218  1
  O  O7  1  0.214000  0.786000  0.035782  1
  F  F8  1  0.966683  0.633706  0.663766  1
  F  F9  1  0.633706  0.966683  0.336234  1
  F  F10  1  0.092771  0.907229  0.290840  1
  F  F11  1  0.424899  0.575101  0.625437  1
  F  F12  1  0.907229  0.092771  0.709160  1
  F  F13  1  0.575101  0.424899  0.374563  1
  F  F14  1  0.033317  0.366294  0.336234  1
  F  F15  1  0.366294  0.033317  0.663766  1
  F  F16  1  0.693564  0.693564  0.000000  1
  F  F17  1  0.306436  0.306436  0.000000  1
