# generated using pymatgen
data_La16Ni8O33
_symmetry_space_group_name_H-M   'P 1'
_cell_length_a   13.83523469
_cell_length_b   13.83523469
_cell_length_c   13.83523469
_cell_angle_alpha   147.42318448
_cell_angle_beta   147.42318448
_cell_angle_gamma   46.73759453
_symmetry_Int_Tables_number   1
_chemical_formula_structural   La16Ni8O33
_chemical_formula_sum   'La16 Ni8 O33'
_cell_volume   764.94295267
_cell_formula_units_Z   1
loop_
 _symmetry_equiv_pos_site_id
 _symmetry_equiv_pos_as_xyz
  1  'x, y, z'
loop_
 _atom_site_type_symbol
 _atom_site_label
 _atom_site_symmetry_multiplicity
 _atom_site_fract_x
 _atom_site_fract_y
 _atom_site_fract_z
 _atom_site_occupancy
  La  La0  1  0.949845  0.693442  0.756987  1
  La  La1  1  0.301518  0.549293  0.738664  1
  La  La2  1  0.437146  0.698482  0.247775  1
  La  La3  1  0.451466  0.693645  0.755769  1
  La  La4  1  0.936455  0.192858  0.243013  1
  La  La5  1  0.937876  0.695697  0.244231  1
  La  La6  1  0.450707  0.189371  0.752225  1
  La  La7  1  0.449375  0.187201  0.242417  1
  La  La8  1  0.810629  0.562854  0.261336  1
  La  La9  1  0.793042  0.550625  0.737826  1
  La  La10  1  0.306558  0.063545  0.256404  1
  La  La11  1  0.807142  0.050155  0.743596  1
  La  La12  1  0.304303  0.548534  0.242179  1
  La  La13  1  0.812799  0.055217  0.262174  1
  La  La14  1  0.944783  0.206958  0.757583  1
  La  La15  1  0.306355  0.062124  0.757821  1
  Ni  Ni16  1  0.624700  0.873137  0.749634  1
  Ni  Ni17  1  0.623776  0.375463  0.247595  1
  Ni  Ni18  1  0.123503  0.875065  0.250366  1
  Ni  Ni19  1  0.126863  0.876497  0.751562  1
  Ni  Ni20  1  0.624537  0.872133  0.248313  1
  Ni  Ni21  1  0.127867  0.376180  0.752405  1
  Ni  Ni22  1  0.124935  0.375300  0.248438  1
  Ni  Ni23  1  0.623820  0.376224  0.751687  1
  O  O24  1  0.877512  0.877512  0.000000  1
  O  O25  1  0.012985  0.786551  0.727896  1
  O  O26  1  0.370420  0.870338  0.000726  1
  O  O27  1  0.377611  0.877611  0.500000  1
  O  O28  1  0.122389  0.622389  0.500000  1
  O  O29  1  0.871387  0.371387  0.500000  1
  O  O30  1  0.203175  0.487783  0.762559  1
  O  O31  1  0.559383  0.796825  0.284608  1
  O  O32  1  0.537372  0.763978  0.726411  1
  O  O33  1  0.058655  0.285089  0.272104  1
  O  O34  1  0.614169  0.614169  0.000000  1
  O  O35  1  0.385831  0.385831  0.000000  1
  O  O36  1  0.378351  0.376479  0.496216  1
  O  O37  1  0.122488  0.122488  0.000000  1
  O  O38  1  0.129662  0.130388  0.500082  1
  O  O39  1  0.630307  0.629580  0.499918  1
  O  O40  1  0.037566  0.810961  0.273589  1
  O  O41  1  0.512217  0.274775  0.715392  1
  O  O42  1  0.483623  0.303897  0.206931  1
  O  O43  1  0.725225  0.440617  0.237441  1
  O  O44  1  0.723308  0.516377  0.820274  1
  O  O45  1  0.213449  0.941345  0.226434  1
  O  O46  1  0.628613  0.128613  0.500000  1
  O  O47  1  0.869612  0.369693  0.999274  1
  O  O48  1  0.750000  0.250000  0.500000  1
  O  O49  1  0.623521  0.119737  0.001872  1
  O  O50  1  0.117865  0.621649  0.998128  1
  O  O51  1  0.189039  0.462628  0.226605  1
  O  O52  1  0.714911  0.987015  0.773566  1
  O  O53  1  0.696103  0.903034  0.179726  1
  O  O54  1  0.096966  0.276692  0.793069  1
  O  O55  1  0.880263  0.882135  0.503784  1
  O  O56  1  0.236022  0.962434  0.773395  1
