# generated using pymatgen
data_LiSn2(PO4)3
_symmetry_space_group_name_H-M   'P 1'
_cell_length_a   8.75696359
_cell_length_b   8.88012639
_cell_length_c   12.34847792
_cell_angle_alpha   90.00000000
_cell_angle_beta   90.00000000
_cell_angle_gamma   90.00000000
_symmetry_Int_Tables_number   1
_chemical_formula_structural   LiSn2(PO4)3
_chemical_formula_sum   'Li4 Sn8 P12 O48'
_cell_volume   960.25399046
_cell_formula_units_Z   4
loop_
 _symmetry_equiv_pos_site_id
 _symmetry_equiv_pos_as_xyz
  1  'x, y, z'
loop_
 _atom_site_type_symbol
 _atom_site_label
 _atom_site_symmetry_multiplicity
 _atom_site_fract_x
 _atom_site_fract_y
 _atom_site_fract_z
 _atom_site_occupancy
  Li  Li0  1  0.038389  0.968995  0.677453  1
  Li  Li1  1  0.038389  0.031005  0.322547  1
  Li  Li2  1  0.961611  0.468995  0.822547  1
  Li  Li3  1  0.961611  0.531005  0.177453  1
  Sn  Sn4  1  0.499408  0.714810  0.118052  1
  Sn  Sn5  1  0.499408  0.285190  0.881948  1
  Sn  Sn6  1  0.500592  0.785190  0.618052  1
  Sn  Sn7  1  0.500592  0.214810  0.381948  1
  Sn  Sn8  1  0.000536  0.290771  0.612644  1
  Sn  Sn9  1  0.000536  0.709229  0.387356  1
  Sn  Sn10  1  0.999464  0.790771  0.887356  1
  Sn  Sn11  1  0.999464  0.209229  0.112644  1
  P  P12  1  0.708036  0.500000  0.500000  1
  P  P13  1  0.643123  0.641458  0.852640  1
  P  P14  1  0.643123  0.358542  0.147360  1
  P  P15  1  0.356877  0.141458  0.647360  1
  P  P16  1  0.356877  0.858542  0.352640  1
  P  P17  1  0.291964  0.000000  0.000000  1
  P  P18  1  0.209942  0.500000  0.000000  1
  P  P19  1  0.146659  0.643633  0.650476  1
  P  P20  1  0.146659  0.356367  0.349524  1
  P  P21  1  0.853341  0.143633  0.849524  1
  P  P22  1  0.853341  0.856367  0.150476  1
  P  P23  1  0.790058  0.000000  0.500000  1
  O  O24  1  0.697875  0.894560  0.571670  1
  O  O25  1  0.697875  0.105440  0.428330  1
  O  O26  1  0.680222  0.146607  0.840655  1
  O  O27  1  0.680222  0.853393  0.159345  1
  O  O28  1  0.608811  0.592925  0.576454  1
  O  O29  1  0.608811  0.407075  0.423546  1
  O  O30  1  0.600420  0.477786  0.823152  1
  O  O31  1  0.600420  0.522214  0.176848  1
  O  O32  1  0.595385  0.684068  0.967586  1
  O  O33  1  0.595385  0.315932  0.032414  1
  O  O34  1  0.578803  0.757887  0.773113  1
  O  O35  1  0.578803  0.242113  0.226887  1
  O  O36  1  0.421197  0.257887  0.726887  1
  O  O37  1  0.421197  0.742113  0.273113  1
  O  O38  1  0.404615  0.184068  0.532414  1
  O  O39  1  0.404615  0.815932  0.467586  1
  O  O40  1  0.399580  0.022214  0.323152  1
  O  O41  1  0.399580  0.977786  0.676848  1
  O  O42  1  0.391189  0.092925  0.923546  1
  O  O43  1  0.391189  0.907075  0.076454  1
  O  O44  1  0.319778  0.646607  0.659345  1
  O  O45  1  0.319778  0.353393  0.340655  1
  O  O46  1  0.302125  0.394560  0.928330  1
  O  O47  1  0.302125  0.605440  0.071670  1
  O  O48  1  0.193033  0.101712  0.074088  1
  O  O49  1  0.193033  0.898288  0.925912  1
  O  O50  1  0.175980  0.144518  0.655275  1
  O  O51  1  0.175980  0.855482  0.344725  1
  O  O52  1  0.099677  0.585160  0.921135  1
  O  O53  1  0.099677  0.414840  0.078865  1
  O  O54  1  0.087520  0.485151  0.685835  1
  O  O55  1  0.087520  0.514849  0.314165  1
  O  O56  1  0.092281  0.683008  0.536062  1
  O  O57  1  0.092281  0.316992  0.463938  1
  O  O58  1  0.073024  0.764409  0.726519  1
  O  O59  1  0.073024  0.235591  0.273481  1
  O  O60  1  0.926976  0.264409  0.773481  1
  O  O61  1  0.926976  0.735591  0.226519  1
  O  O62  1  0.907719  0.183008  0.963938  1
  O  O63  1  0.907719  0.816992  0.036062  1
  O  O64  1  0.912480  0.985151  0.814165  1
  O  O65  1  0.912480  0.014849  0.185835  1
  O  O66  1  0.900323  0.085160  0.578865  1
  O  O67  1  0.900323  0.914840  0.421135  1
  O  O68  1  0.824020  0.644518  0.844725  1
  O  O69  1  0.824020  0.355482  0.155275  1
  O  O70  1  0.806967  0.398288  0.574088  1
  O  O71  1  0.806967  0.601712  0.425912  1
