# generated using pymatgen
data_Ba5V5O14
_symmetry_space_group_name_H-M   'P 1'
_cell_length_a   5.78510925
_cell_length_b   5.79928214
_cell_length_c   23.81486566
_cell_angle_alpha   89.05345359
_cell_angle_beta   89.49931463
_cell_angle_gamma   60.56578107
_symmetry_Int_Tables_number   1
_chemical_formula_structural   Ba5V5O14
_chemical_formula_sum   'Ba10 V10 O28'
_cell_volume   695.74975228
_cell_formula_units_Z   2
loop_
 _symmetry_equiv_pos_site_id
 _symmetry_equiv_pos_as_xyz
  1  'x, y, z'
loop_
 _atom_site_type_symbol
 _atom_site_label
 _atom_site_symmetry_multiplicity
 _atom_site_fract_x
 _atom_site_fract_y
 _atom_site_fract_z
 _atom_site_occupancy
  Ba  Ba0  1  0.666602  0.666654  0.794088  1
  Ba  Ba1  1  0.661099  0.675158  0.612077  1
  Ba  Ba2  1  0.668345  0.673293  0.295255  1
  Ba  Ba3  1  0.672624  0.667548  0.111918  1
  Ba  Ba4  1  0.000747  0.994666  0.999903  1
  Ba  Ba5  1  0.998017  0.001722  0.499100  1
  Ba  Ba6  1  0.328844  0.337373  0.890329  1
  Ba  Ba7  1  0.333787  0.335626  0.391170  1
  Ba  Ba8  1  0.336789  0.333267  0.207808  1
  Ba  Ba9  1  0.329386  0.341596  0.707655  1
  V  V10  1  0.632729  0.688869  0.946086  1
  V  V11  1  0.684938  0.630126  0.446782  1
  V  V12  1  0.991143  0.004286  0.859924  1
  V  V13  1  0.015359  0.984223  0.140462  1
  V  V14  1  0.998465  0.006330  0.748845  1
  V  V15  1  0.991153  0.023507  0.639214  1
  V  V16  1  0.000497  0.000839  0.359510  1
  V  V17  1  0.000224  0.005477  0.248956  1
  V  V18  1  0.308692  0.382102  0.554557  1
  V  V19  1  0.371259  0.317304  0.054389  1
  O  O20  1  0.530423  0.955354  0.004055  1
  O  O21  1  0.310288  0.847464  0.899267  1
  O  O22  1  0.341349  0.836278  0.406897  1
  O  O23  1  0.293832  0.860660  0.695828  1
  O  O24  1  0.310837  0.850041  0.195766  1
  O  O25  1  0.834197  0.874450  0.700285  1
  O  O26  1  0.862585  0.833371  0.200513  1
  O  O27  1  0.839268  0.819725  0.906755  1
  O  O28  1  0.825710  0.835230  0.405660  1
  O  O29  1  0.854528  0.293252  0.198114  1
  O  O30  1  0.843601  0.322658  0.697364  1
  O  O31  1  0.850411  0.309623  0.400190  1
  O  O32  1  0.831674  0.336022  0.907033  1
  O  O33  1  0.016598  0.483243  0.499032  1
  O  O34  1  0.165874  0.658129  0.598539  1
  O  O35  1  0.177410  0.657534  0.094225  1
  O  O36  1  0.144461  0.704770  0.802275  1
  O  O37  1  0.150615  0.707469  0.306051  1
  O  O38  1  0.187151  0.150798  0.589783  1
  O  O39  1  0.150399  0.203765  0.085854  1
  O  O40  1  0.140787  0.157318  0.800263  1
  O  O41  1  0.159105  0.144931  0.301525  1
  O  O42  1  0.451309  0.482785  0.996064  1
  O  O43  1  0.504558  0.480149  0.499219  1
  O  O44  1  0.699334  0.148546  0.807551  1
  O  O45  1  0.701249  0.151073  0.303134  1
  O  O46  1  0.659321  0.156846  0.592041  1
  O  O47  1  0.671820  0.165952  0.098690  1
