# generated using pymatgen
data_Li6Co6O5F11
_symmetry_space_group_name_H-M   'P 1'
_cell_length_a   6.03312093
_cell_length_b   6.03312093
_cell_length_c   10.50870830
_cell_angle_alpha   72.80796040
_cell_angle_beta   107.19203960
_cell_angle_gamma   120.97219471
_symmetry_Int_Tables_number   1
_chemical_formula_structural   Li6Co6O5F11
_chemical_formula_sum   'Li6 Co6 O5 F11'
_cell_volume   308.46678131
_cell_formula_units_Z   1
loop_
 _symmetry_equiv_pos_site_id
 _symmetry_equiv_pos_as_xyz
  1  'x, y, z'
loop_
 _atom_site_type_symbol
 _atom_site_label
 _atom_site_symmetry_multiplicity
 _atom_site_fract_x
 _atom_site_fract_y
 _atom_site_fract_z
 _atom_site_occupancy
  Li  Li0  1  0.376255  0.623745  0.126183  1
  Li  Li1  1  0.194728  0.805272  0.554673  1
  Li  Li2  1  0.502368  0.497632  0.493765  1
  Li  Li3  1  0.868313  0.131687  0.624590  1
  Li  Li4  1  0.440511  0.559489  0.809467  1
  Li  Li5  1  0.008849  0.991151  0.006731  1
  Co  Co6  1  0.930358  0.069642  0.312109  1
  Co  Co7  1  0.694047  0.305953  0.082855  1
  Co  Co8  1  0.970163  0.575106  0.816510  1
  Co  Co9  1  0.475595  0.078993  0.311018  1
  Co  Co10  1  0.921007  0.524405  0.311018  1
  Co  Co11  1  0.424894  0.029837  0.816510  1
  O  O12  1  0.575217  0.424783  0.187266  1
  O  O13  1  0.571114  0.957064  0.187863  1
  O  O14  1  0.042936  0.428886  0.187863  1
  O  O15  1  0.306854  0.693146  0.922301  1
  O  O16  1  0.812207  0.187793  0.431169  1
  F  F17  1  0.072536  0.927464  0.203751  1
  F  F18  1  0.304172  0.160014  0.430479  1
  F  F19  1  0.839986  0.695828  0.430479  1
  F  F20  1  0.070070  0.457679  0.691635  1
  F  F21  1  0.542321  0.929930  0.691635  1
  F  F22  1  0.068125  0.931875  0.683891  1
  F  F23  1  0.805750  0.194250  0.933666  1
  F  F24  1  0.585803  0.414197  0.709900  1
  F  F25  1  0.302858  0.697142  0.430193  1
  F  F26  1  0.804571  0.659384  0.928701  1
  F  F27  1  0.340616  0.195429  0.928701  1
