# generated using pymatgen
data_Li11(FeO3)4
_symmetry_space_group_name_H-M   'P 1'
_cell_length_a   8.99739581
_cell_length_b   3.49637869
_cell_length_c   9.06567452
_cell_angle_alpha   90.00000000
_cell_angle_beta   90.72958351
_cell_angle_gamma   90.00000000
_symmetry_Int_Tables_number   1
_chemical_formula_structural   Li11(FeO3)4
_chemical_formula_sum   'Li11 Fe4 O12'
_cell_volume   285.16761466
_cell_formula_units_Z   1
loop_
 _symmetry_equiv_pos_site_id
 _symmetry_equiv_pos_as_xyz
  1  'x, y, z'
loop_
 _atom_site_type_symbol
 _atom_site_label
 _atom_site_symmetry_multiplicity
 _atom_site_fract_x
 _atom_site_fract_y
 _atom_site_fract_z
 _atom_site_occupancy
  Li  Li0  1  0.887816  0.500000  0.313813  1
  Li  Li1  1  0.856299  0.000000  0.600875  1
  Li  Li2  1  0.681579  0.500000  0.108869  1
  Li  Li3  1  0.668993  0.500000  0.670518  1
  Li  Li4  1  0.599206  0.000000  0.859073  1
  Li  Li5  1  0.399633  0.000000  0.147811  1
  Li  Li6  1  0.357579  0.500000  0.901847  1
  Li  Li7  1  0.326708  0.500000  0.330389  1
  Li  Li8  1  0.170085  0.000000  0.825336  1
  Li  Li9  1  0.128709  0.000000  0.397349  1
  Li  Li10  1  0.096431  0.500000  0.640332  1
  Fe  Fe11  1  0.886732  0.500000  0.886556  1
  Fe  Fe12  1  0.383795  0.000000  0.612295  1
  Fe  Fe13  1  0.615946  0.000000  0.385543  1
  Fe  Fe14  1  0.112580  0.500000  0.110184  1
  O  O15  1  0.887985  0.500000  0.685040  1
  O  O16  1  0.904972  0.500000  0.092386  1
  O  O17  1  0.814139  0.000000  0.396296  1
  O  O18  1  0.683520  0.500000  0.890455  1
  O  O19  1  0.598535  0.000000  0.600955  1
  O  O20  1  0.606154  0.000000  0.189315  1
  O  O21  1  0.398773  0.000000  0.399799  1
  O  O22  1  0.388487  0.000000  0.815748  1
  O  O23  1  0.315840  0.500000  0.110433  1
  O  O24  1  0.178517  0.000000  0.606285  1
  O  O25  1  0.107311  0.500000  0.311503  1
  O  O26  1  0.102291  0.500000  0.896437  1
