# generated using pymatgen
data_Ba3Co(CN)3
_symmetry_space_group_name_H-M   'P 1'
_cell_length_a   9.11995037
_cell_length_b   9.11995037
_cell_length_c   5.82949634
_cell_angle_alpha   90.00000000
_cell_angle_beta   90.00000000
_cell_angle_gamma   120.00000000
_symmetry_Int_Tables_number   1
_chemical_formula_structural   Ba3Co(CN)3
_chemical_formula_sum   'Ba6 Co2 C6 N6'
_cell_volume   419.90071659
_cell_formula_units_Z   2
loop_
 _symmetry_equiv_pos_site_id
 _symmetry_equiv_pos_as_xyz
  1  'x, y, z'
loop_
 _atom_site_type_symbol
 _atom_site_label
 _atom_site_symmetry_multiplicity
 _atom_site_fract_x
 _atom_site_fract_y
 _atom_site_fract_z
 _atom_site_occupancy
  Ba  Ba0  1  0.930223  0.621679  0.750000  1
  Ba  Ba1  1  0.069777  0.378321  0.250000  1
  Ba  Ba2  1  0.378321  0.308544  0.750000  1
  Ba  Ba3  1  0.691456  0.069777  0.750000  1
  Ba  Ba4  1  0.308544  0.930223  0.250000  1
  Ba  Ba5  1  0.621679  0.691456  0.250000  1
  Co  Co6  1  0.333333  0.666667  0.750000  1
  Co  Co7  1  0.666667  0.333333  0.250000  1
  C  C8  1  0.155435  0.458085  0.750000  1
  C  C9  1  0.541915  0.697350  0.750000  1
  C  C10  1  0.458085  0.302650  0.250000  1
  C  C11  1  0.844565  0.541915  0.250000  1
  C  C12  1  0.302650  0.844565  0.750000  1
  C  C13  1  0.697350  0.155435  0.250000  1
  N  N14  1  0.033489  0.310711  0.750000  1
  N  N15  1  0.966511  0.689289  0.250000  1
  N  N16  1  0.722778  0.033489  0.250000  1
  N  N17  1  0.689289  0.722778  0.750000  1
  N  N18  1  0.310711  0.277222  0.250000  1
  N  N19  1  0.277222  0.966511  0.750000  1
