# generated using pymatgen
data_Ce3AgGeS7
_symmetry_space_group_name_H-M   'P 1'
_cell_length_a   10.36523522
_cell_length_b   10.36523522
_cell_length_c   5.87445854
_cell_angle_alpha   90.00000000
_cell_angle_beta   90.00000000
_cell_angle_gamma   120.00000000
_symmetry_Int_Tables_number   1
_chemical_formula_structural   Ce3AgGeS7
_chemical_formula_sum   'Ce6 Ag2 Ge2 S14'
_cell_volume   546.58385502
_cell_formula_units_Z   2
loop_
 _symmetry_equiv_pos_site_id
 _symmetry_equiv_pos_as_xyz
  1  'x, y, z'
loop_
 _atom_site_type_symbol
 _atom_site_label
 _atom_site_symmetry_multiplicity
 _atom_site_fract_x
 _atom_site_fract_y
 _atom_site_fract_z
 _atom_site_occupancy
  Ce  Ce0  1  0.231266  0.359833  0.745644  1
  Ce  Ce1  1  0.768734  0.640167  0.245644  1
  Ce  Ce2  1  0.128567  0.768734  0.745644  1
  Ce  Ce3  1  0.640167  0.871433  0.745644  1
  Ce  Ce4  1  0.359833  0.128567  0.245644  1
  Ce  Ce5  1  0.871433  0.231266  0.245644  1
  Ag  Ag6  1  0.000000  0.000000  0.688593  1
  Ag  Ag7  1  0.000000  0.000000  0.188593  1
  Ge  Ge8  1  0.333333  0.666667  0.327486  1
  Ge  Ge9  1  0.666667  0.333333  0.827486  1
  S  S10  1  0.333333  0.666667  0.951060  1
  S  S11  1  0.666667  0.333333  0.451060  1
  S  S12  1  0.107045  0.521916  0.483515  1
  S  S13  1  0.892955  0.478084  0.983515  1
  S  S14  1  0.414871  0.892955  0.483515  1
  S  S15  1  0.478084  0.585129  0.483515  1
  S  S16  1  0.521916  0.414871  0.983515  1
  S  S17  1  0.585129  0.107045  0.983515  1
  S  S18  1  0.171647  0.268080  0.224549  1
  S  S19  1  0.828353  0.731920  0.724549  1
  S  S20  1  0.096433  0.828353  0.224549  1
  S  S21  1  0.731920  0.903567  0.224549  1
  S  S22  1  0.268080  0.096433  0.724549  1
  S  S23  1  0.903567  0.171647  0.724549  1
