# generated using pymatgen
data_CoTe2O5
_symmetry_space_group_name_H-M   'P 1'
_cell_length_a   8.72700215
_cell_length_b   8.72700215
_cell_length_c   12.98589063
_cell_angle_alpha   90.00000000
_cell_angle_beta   90.00000000
_cell_angle_gamma   90.00000000
_symmetry_Int_Tables_number   1
_chemical_formula_structural   CoTe2O5
_chemical_formula_sum   'Co8 Te16 O40'
_cell_volume   989.01278723
_cell_formula_units_Z   8
loop_
 _symmetry_equiv_pos_site_id
 _symmetry_equiv_pos_as_xyz
  1  'x, y, z'
loop_
 _atom_site_type_symbol
 _atom_site_label
 _atom_site_symmetry_multiplicity
 _atom_site_fract_x
 _atom_site_fract_y
 _atom_site_fract_z
 _atom_site_occupancy
  Co  Co0  1  0.500000  0.000000  0.000000  1
  Co  Co1  1  0.500000  0.000000  0.750000  1
  Co  Co2  1  0.500000  0.000000  0.250000  1
  Co  Co3  1  0.500000  0.000000  0.500000  1
  Co  Co4  1  0.000000  0.500000  0.750000  1
  Co  Co5  1  0.000000  0.500000  0.000000  1
  Co  Co6  1  0.000000  0.500000  0.250000  1
  Co  Co7  1  0.000000  0.500000  0.500000  1
  Te  Te8  1  0.289436  0.317657  0.133027  1
  Te  Te9  1  0.289436  0.682343  0.366973  1
  Te  Te10  1  0.317657  0.710564  0.866973  1
  Te  Te11  1  0.317657  0.289436  0.633027  1
  Te  Te12  1  0.682343  0.289436  0.866973  1
  Te  Te13  1  0.682343  0.710564  0.633027  1
  Te  Te14  1  0.710564  0.317657  0.366973  1
  Te  Te15  1  0.710564  0.682343  0.133027  1
  Te  Te16  1  0.789436  0.182343  0.133027  1
  Te  Te17  1  0.789436  0.817657  0.366973  1
  Te  Te18  1  0.817657  0.789436  0.866973  1
  Te  Te19  1  0.817657  0.210564  0.633027  1
  Te  Te20  1  0.182343  0.789436  0.633027  1
  Te  Te21  1  0.182343  0.210564  0.866973  1
  Te  Te22  1  0.210564  0.182343  0.366973  1
  Te  Te23  1  0.210564  0.817657  0.133027  1
  O  O24  1  0.273701  0.876340  0.296880  1
  O  O25  1  0.273701  0.123660  0.203120  1
  O  O26  1  0.305033  0.194967  0.000000  1
  O  O27  1  0.305033  0.805033  0.500000  1
  O  O28  1  0.355853  0.924713  0.885824  1
  O  O29  1  0.355853  0.075287  0.614176  1
  O  O30  1  0.376340  0.226299  0.796880  1
  O  O31  1  0.376340  0.773701  0.703120  1
  O  O32  1  0.424713  0.855853  0.114176  1
  O  O33  1  0.424713  0.144147  0.385824  1
  O  O34  1  0.575287  0.855853  0.385824  1
  O  O35  1  0.575287  0.144147  0.114176  1
  O  O36  1  0.623660  0.773701  0.796880  1
  O  O37  1  0.623660  0.226299  0.703120  1
  O  O38  1  0.644147  0.075287  0.885824  1
  O  O39  1  0.644147  0.924713  0.614176  1
  O  O40  1  0.694967  0.805033  0.000000  1
  O  O41  1  0.694967  0.194967  0.500000  1
  O  O42  1  0.726299  0.876340  0.203120  1
  O  O43  1  0.726299  0.123660  0.296880  1
  O  O44  1  0.773701  0.376340  0.203120  1
  O  O45  1  0.773701  0.623660  0.296880  1
  O  O46  1  0.805033  0.305033  0.000000  1
  O  O47  1  0.805033  0.694967  0.500000  1
  O  O48  1  0.855853  0.424713  0.614176  1
  O  O49  1  0.855853  0.575287  0.885824  1
  O  O50  1  0.876340  0.273701  0.796880  1
  O  O51  1  0.876340  0.726299  0.703120  1
  O  O52  1  0.924713  0.355853  0.385824  1
  O  O53  1  0.924713  0.644147  0.114176  1
  O  O54  1  0.075287  0.355853  0.114176  1
  O  O55  1  0.075287  0.644147  0.385824  1
  O  O56  1  0.123660  0.273701  0.703120  1
  O  O57  1  0.123660  0.726299  0.796880  1
  O  O58  1  0.144147  0.424713  0.885824  1
  O  O59  1  0.144147  0.575287  0.614176  1
  O  O60  1  0.194967  0.305033  0.500000  1
  O  O61  1  0.194967  0.694967  0.000000  1
  O  O62  1  0.226299  0.376340  0.296880  1
  O  O63  1  0.226299  0.623660  0.203120  1
