# generated using pymatgen
data_LiCuF4
_symmetry_space_group_name_H-M   'P 1'
_cell_length_a   7.71167108
_cell_length_b   7.71167108
_cell_length_c   12.19173919
_cell_angle_alpha   60.12824590
_cell_angle_beta   119.87175410
_cell_angle_gamma   151.09421730
_symmetry_Int_Tables_number   1
_chemical_formula_structural   LiCuF4
_chemical_formula_sum   'Li4 Cu4 F16'
_cell_volume   300.55340428
_cell_formula_units_Z   4
loop_
 _symmetry_equiv_pos_site_id
 _symmetry_equiv_pos_as_xyz
  1  'x, y, z'
loop_
 _atom_site_type_symbol
 _atom_site_label
 _atom_site_symmetry_multiplicity
 _atom_site_fract_x
 _atom_site_fract_y
 _atom_site_fract_z
 _atom_site_occupancy
  Li  Li0  1  0.198464  0.801536  0.167344  1
  Li  Li1  1  0.657555  0.342445  0.342332  1
  Li  Li2  1  0.345624  0.654376  0.662053  1
  Li  Li3  1  0.805948  0.194052  0.833123  1
  Cu  Cu4  1  0.036158  0.963842  0.867544  1
  Cu  Cu5  1  0.137945  0.862055  0.639264  1
  Cu  Cu6  1  0.862446  0.137554  0.360974  1
  Cu  Cu7  1  0.965103  0.034897  0.132623  1
  F  F8  1  0.073530  0.926470  0.737800  1
  F  F9  1  0.106969  0.893031  0.261371  1
  F  F10  1  0.196167  0.803833  0.534108  1
  F  F11  1  0.280156  0.719844  0.783084  1
  F  F12  1  0.171765  0.828235  0.995256  1
  F  F13  1  0.521671  0.478329  0.853625  1
  F  F14  1  0.348684  0.651316  0.343621  1
  F  F15  1  0.651963  0.348037  0.656011  1
  F  F16  1  0.474881  0.525119  0.142161  1
  F  F17  1  0.829953  0.170047  0.002719  1
  F  F18  1  0.719472  0.280528  0.218501  1
  F  F19  1  0.806056  0.193944  0.467758  1
  F  F20  1  0.002449  0.997551  0.001248  1
  F  F21  1  0.892420  0.107580  0.740659  1
  F  F22  1  0.000675  0.999325  0.499096  1
  F  F23  1  0.922017  0.077983  0.257725  1
