# generated using pymatgen
data_Li4V3P8O29
_symmetry_space_group_name_H-M   'P 1'
_cell_length_a   9.78373132
_cell_length_b   9.78373132
_cell_length_c   14.37083607
_cell_angle_alpha   88.74073158
_cell_angle_beta   91.25926842
_cell_angle_gamma   120.48354547
_symmetry_Int_Tables_number   1
_chemical_formula_structural   Li4V3P8O29
_chemical_formula_sum   'Li8 V6 P16 O58'
_cell_volume   1185.07462829
_cell_formula_units_Z   2
loop_
 _symmetry_equiv_pos_site_id
 _symmetry_equiv_pos_as_xyz
  1  'x, y, z'
loop_
 _atom_site_type_symbol
 _atom_site_label
 _atom_site_symmetry_multiplicity
 _atom_site_fract_x
 _atom_site_fract_y
 _atom_site_fract_z
 _atom_site_occupancy
  Li  Li0  1  0.224843  0.316095  0.059835  1
  Li  Li1  1  0.683905  0.775157  0.559835  1
  Li  Li2  1  0.099465  0.759194  0.061308  1
  Li  Li3  1  0.772566  0.104224  0.439458  1
  Li  Li4  1  0.240806  0.900535  0.561308  1
  Li  Li5  1  0.895776  0.227434  0.939458  1
  Li  Li6  1  0.950550  0.935302  0.987092  1
  Li  Li7  1  0.064698  0.049450  0.487092  1
  V  V8  1  0.563704  0.996637  0.243728  1
  V  V9  1  0.436374  0.003723  0.757133  1
  V  V10  1  0.003363  0.436296  0.743728  1
  V  V11  1  0.996277  0.563626  0.257133  1
  V  V12  1  0.439165  0.438435  0.248003  1
  V  V13  1  0.561565  0.560835  0.748003  1
  P  P14  1  0.223113  0.308570  0.844706  1
  P  P15  1  0.086895  0.300368  0.333811  1
  P  P16  1  0.691430  0.776887  0.344706  1
  P  P17  1  0.323076  0.664312  0.132756  1
  P  P18  1  0.335688  0.676924  0.632756  1
  P  P19  1  0.699632  0.913105  0.833811  1
  P  P20  1  0.768846  0.091854  0.655088  1
  P  P21  1  0.085922  0.768457  0.846233  1
  P  P22  1  0.908146  0.231154  0.155088  1
  P  P23  1  0.231543  0.914078  0.346233  1
  P  P24  1  0.299647  0.083167  0.164730  1
  P  P25  1  0.664794  0.323520  0.363990  1
  P  P26  1  0.676480  0.335206  0.863990  1
  P  P27  1  0.295901  0.215369  0.664998  1
  P  P28  1  0.916833  0.700353  0.664730  1
  P  P29  1  0.784631  0.704099  0.164998  1
  O  O30  1  0.191820  0.195645  0.584205  1
  O  O31  1  0.261069  0.343947  0.328688  1
  O  O32  1  0.986715  0.236445  0.065348  1
  O  O33  1  0.078176  0.335877  0.830732  1
  O  O34  1  0.376980  0.465049  0.827958  1
  O  O35  1  0.323625  0.511873  0.164250  1
  O  O36  1  0.534951  0.623020  0.327958  1
  O  O37  1  0.804355  0.808180  0.084205  1
  O  O38  1  0.656053  0.738931  0.828688  1
  O  O39  1  0.189773  0.524929  0.679608  1
  O  O40  1  0.076997  0.454301  0.328686  1
  O  O41  1  0.488127  0.676375  0.664250  1
  O  O42  1  0.311422  0.682269  0.030403  1
  O  O43  1  0.317731  0.688578  0.530403  1
  O  O44  1  0.475071  0.810227  0.179608  1
  O  O45  1  0.083476  0.611856  0.829502  1
  O  O46  1  0.180033  0.665096  0.180756  1
  O  O47  1  0.664123  0.921824  0.330732  1
  O  O48  1  0.793667  0.993770  0.738194  1
  O  O49  1  0.763555  0.013285  0.565348  1
  O  O50  1  0.808173  0.999390  0.913472  1
  O  O51  1  0.545699  0.923003  0.828686  1
  O  O52  1  0.334904  0.819967  0.680756  1
  O  O53  1  0.737101  0.086110  0.160990  1
  O  O54  1  0.388144  0.916524  0.329502  1
  O  O55  1  0.089998  0.741112  0.332676  1
  O  O56  1  0.006230  0.206333  0.238194  1
  O  O57  1  0.000610  0.191827  0.413472  1
  O  O58  1  0.015560  0.807299  0.588414  1
  O  O59  1  0.913890  0.262899  0.660990  1
  O  O60  1  0.615500  0.093066  0.675434  1
  O  O61  1  0.258888  0.910002  0.832676  1
  O  O62  1  0.674667  0.183982  0.316344  1
  O  O63  1  0.457599  0.079443  0.173791  1
  O  O64  1  0.192701  0.984440  0.088414  1
  O  O65  1  0.219141  0.977758  0.437163  1
  O  O66  1  0.212631  0.017168  0.264123  1
  O  O67  1  0.340920  0.082571  0.667482  1
  O  O68  1  0.816018  0.325333  0.816344  1
  O  O69  1  0.906934  0.384500  0.175434  1
  O  O70  1  0.519387  0.184107  0.824137  1
  O  O71  1  0.692342  0.326116  0.966423  1
  O  O72  1  0.673884  0.307658  0.466423  1
  O  O73  1  0.522111  0.327419  0.320892  1
  O  O74  1  0.920557  0.542401  0.673791  1
  O  O75  1  0.815893  0.480613  0.324137  1
  O  O76  1  0.337906  0.256828  0.159319  1
  O  O77  1  0.203793  0.190110  0.762037  1
  O  O78  1  0.208644  0.229218  0.936714  1
  O  O79  1  0.451664  0.379080  0.672916  1
  O  O80  1  0.672581  0.477889  0.820892  1
  O  O81  1  0.620920  0.548336  0.172916  1
  O  O82  1  0.917429  0.659080  0.167482  1
  O  O83  1  0.022242  0.780859  0.937163  1
  O  O84  1  0.982832  0.787369  0.764123  1
  O  O85  1  0.743172  0.662094  0.659319  1
  O  O86  1  0.770782  0.791356  0.436714  1
  O  O87  1  0.809890  0.796207  0.262037  1
