# generated using pymatgen
data_Li2Mn3(BO3)3
_symmetry_space_group_name_H-M   'P 1'
_cell_length_a   5.22870949
_cell_length_b   7.93368557
_cell_length_c   9.66854335
_cell_angle_alpha   105.13683066
_cell_angle_beta   103.42194841
_cell_angle_gamma   87.71284222
_symmetry_Int_Tables_number   1
_chemical_formula_structural   Li2Mn3(BO3)3
_chemical_formula_sum   'Li4 Mn6 B6 O18'
_cell_volume   376.49793800
_cell_formula_units_Z   2
loop_
 _symmetry_equiv_pos_site_id
 _symmetry_equiv_pos_as_xyz
  1  'x, y, z'
loop_
 _atom_site_type_symbol
 _atom_site_label
 _atom_site_symmetry_multiplicity
 _atom_site_fract_x
 _atom_site_fract_y
 _atom_site_fract_z
 _atom_site_occupancy
  Li  Li0  1  0.906897  0.689402  0.649803  1
  Li  Li1  1  0.567423  0.355514  0.985429  1
  Li  Li2  1  0.090310  0.333335  0.358374  1
  Li  Li3  1  0.243757  0.006640  0.309048  1
  Mn  Mn4  1  0.330396  0.920315  0.840332  1
  Mn  Mn5  1  0.350030  0.755457  0.494817  1
  Mn  Mn6  1  0.021299  0.425649  0.829956  1
  Mn  Mn7  1  0.981816  0.585550  0.166864  1
  Mn  Mn8  1  0.658226  0.243759  0.514471  1
  Mn  Mn9  1  0.680831  0.081391  0.163798  1
  B  B10  1  0.868914  0.793636  0.931369  1
  B  B11  1  0.792386  0.859540  0.391991  1
  B  B12  1  0.461226  0.533675  0.727460  1
  B  B13  1  0.547763  0.469668  0.285731  1
  B  B14  1  0.199820  0.134566  0.604449  1
  B  B15  1  0.128852  0.202459  0.058165  1
  O  O16  1  0.996474  0.647020  0.974027  1
  O  O17  1  0.654973  0.855088  0.989944  1
  O  O18  1  0.949222  0.862953  0.834568  1
  O  O19  1  0.032317  0.825279  0.346626  1
  O  O20  1  0.632524  0.986889  0.344470  1
  O  O21  1  0.302371  0.655252  0.668882  1
  O  O22  1  0.729440  0.771909  0.484499  1
  O  O23  1  0.393310  0.450445  0.821563  1
  O  O24  1  0.702590  0.495044  0.686281  1
  O  O25  1  0.312764  0.523570  0.337677  1
  O  O26  1  0.602351  0.530976  0.177320  1
  O  O27  1  0.257317  0.200164  0.496923  1
  O  O28  1  0.701143  0.342921  0.340497  1
  O  O29  1  0.323972  0.987450  0.640447  1
  O  O30  1  0.996794  0.205524  0.673508  1
  O  O31  1  0.078953  0.139672  0.170085  1
  O  O32  1  0.362323  0.160494  0.010315  1
  O  O33  1  0.961427  0.321438  0.000640  1
