# generated using pymatgen
data_K3SbSe4
_symmetry_space_group_name_H-M   'P 1'
_cell_length_a   8.18526329
_cell_length_b   8.18526329
_cell_length_c   8.18526329
_cell_angle_alpha   92.00302008
_cell_angle_beta   92.00302008
_cell_angle_gamma   92.00302008
_symmetry_Int_Tables_number   1
_chemical_formula_structural   K3SbSe4
_chemical_formula_sum   'K6 Sb2 Se8'
_cell_volume   547.37133336
_cell_formula_units_Z   2
loop_
 _symmetry_equiv_pos_site_id
 _symmetry_equiv_pos_as_xyz
  1  'x, y, z'
loop_
 _atom_site_type_symbol
 _atom_site_label
 _atom_site_symmetry_multiplicity
 _atom_site_fract_x
 _atom_site_fract_y
 _atom_site_fract_z
 _atom_site_occupancy
  K  K0  1  0.000709  0.525602  0.455060  1
  K  K1  1  0.525602  0.455060  0.000709  1
  K  K2  1  0.455060  0.000709  0.525602  1
  K  K3  1  0.500709  0.955060  0.025602  1
  K  K4  1  0.955060  0.025602  0.500709  1
  K  K5  1  0.025602  0.500709  0.955060  1
  Sb  Sb6  1  0.001694  0.001694  0.001694  1
  Sb  Sb7  1  0.501694  0.501694  0.501694  1
  Se  Se8  1  0.159106  0.829279  0.199214  1
  Se  Se9  1  0.317836  0.317836  0.317836  1
  Se  Se10  1  0.659106  0.699214  0.329279  1
  Se  Se11  1  0.829279  0.199214  0.159106  1
  Se  Se12  1  0.199214  0.159106  0.829279  1
  Se  Se13  1  0.329279  0.659106  0.699214  1
  Se  Se14  1  0.699214  0.329279  0.659106  1
  Se  Se15  1  0.817836  0.817836  0.817836  1
