# generated using pymatgen
data_Mn6O7F5
_symmetry_space_group_name_H-M   'P 1'
_cell_length_a   4.68743287
_cell_length_b   4.68743287
_cell_length_c   9.22759957
_cell_angle_alpha   89.68740456
_cell_angle_beta   90.31259544
_cell_angle_gamma   93.81249283
_symmetry_Int_Tables_number   1
_chemical_formula_structural   Mn6O7F5
_chemical_formula_sum   'Mn6 O7 F5'
_cell_volume   202.29473523
_cell_formula_units_Z   1
loop_
 _symmetry_equiv_pos_site_id
 _symmetry_equiv_pos_as_xyz
  1  'x, y, z'
loop_
 _atom_site_type_symbol
 _atom_site_label
 _atom_site_symmetry_multiplicity
 _atom_site_fract_x
 _atom_site_fract_y
 _atom_site_fract_z
 _atom_site_occupancy
  Mn  Mn0  1  0.003275  0.987210  0.175057  1
  Mn  Mn1  1  0.023611  0.023611  0.500000  1
  Mn  Mn2  1  0.987210  0.003275  0.824943  1
  Mn  Mn3  1  0.494020  0.494020  0.000000  1
  Mn  Mn4  1  0.471023  0.518908  0.325771  1
  Mn  Mn5  1  0.518908  0.471023  0.674229  1
  O  O6  1  0.818914  0.185126  0.662188  1
  O  O7  1  0.286454  0.312213  0.166102  1
  O  O8  1  0.320658  0.320658  0.500000  1
  O  O9  1  0.312213  0.286454  0.833898  1
  O  O10  1  0.674798  0.702428  0.167214  1
  O  O11  1  0.702428  0.674798  0.832786  1
  O  O12  1  0.185126  0.818914  0.337812  1
  F  F13  1  0.782895  0.221882  0.336354  1
  F  F14  1  0.808218  0.181662  0.011639  1
  F  F15  1  0.706707  0.706707  0.500000  1
  F  F16  1  0.221882  0.782895  0.663646  1
  F  F17  1  0.181662  0.808218  0.988361  1
