# generated using pymatgen
data_CaB2(H7N)2
_symmetry_space_group_name_H-M   'P 1'
_cell_length_a   6.39161885
_cell_length_b   8.21570822
_cell_length_c   12.21028304
_cell_angle_alpha   90.00000000
_cell_angle_beta   90.00000000
_cell_angle_gamma   90.00000000
_symmetry_Int_Tables_number   1
_chemical_formula_structural   CaB2(H7N)2
_chemical_formula_sum   'Ca4 B8 H56 N8'
_cell_volume   641.18242107
_cell_formula_units_Z   4
loop_
 _symmetry_equiv_pos_site_id
 _symmetry_equiv_pos_as_xyz
  1  'x, y, z'
loop_
 _atom_site_type_symbol
 _atom_site_label
 _atom_site_symmetry_multiplicity
 _atom_site_fract_x
 _atom_site_fract_y
 _atom_site_fract_z
 _atom_site_occupancy
  Ca  Ca0  1  0.000000  0.243142  0.250000  1
  Ca  Ca1  1  0.500000  0.256858  0.750000  1
  Ca  Ca2  1  0.000000  0.756858  0.750000  1
  Ca  Ca3  1  0.500000  0.743142  0.250000  1
  B  B4  1  0.766261  0.521334  0.153417  1
  B  B5  1  0.733739  0.978666  0.653417  1
  B  B6  1  0.266261  0.978666  0.846583  1
  B  B7  1  0.233739  0.521334  0.346583  1
  B  B8  1  0.233739  0.478666  0.846583  1
  B  B9  1  0.266261  0.021334  0.346583  1
  B  B10  1  0.733739  0.021334  0.153417  1
  B  B11  1  0.766261  0.478666  0.653417  1
  H  H12  1  0.818580  0.335268  0.661392  1
  H  H13  1  0.681420  0.164732  0.161392  1
  H  H14  1  0.318580  0.164732  0.338608  1
  H  H15  1  0.181420  0.335268  0.838608  1
  H  H16  1  0.181420  0.664732  0.338608  1
  H  H17  1  0.318580  0.835268  0.838608  1
  H  H18  1  0.681420  0.835268  0.661392  1
  H  H19  1  0.818580  0.664732  0.161392  1
  H  H20  1  0.606206  0.489166  0.598586  1
  H  H21  1  0.893794  0.010834  0.098586  1
  H  H22  1  0.106206  0.010834  0.401414  1
  H  H23  1  0.393794  0.489166  0.901414  1
  H  H24  1  0.393794  0.510834  0.401414  1
  H  H25  1  0.106206  0.989166  0.901414  1
  H  H26  1  0.893794  0.989166  0.598586  1
  H  H27  1  0.606206  0.510834  0.098586  1
  H  H28  1  0.281814  0.352357  0.052044  1
  H  H29  1  0.218186  0.147643  0.552044  1
  H  H30  1  0.781814  0.147643  0.947956  1
  H  H31  1  0.718186  0.352357  0.447956  1
  H  H32  1  0.718186  0.647643  0.947956  1
  H  H33  1  0.781814  0.852357  0.447956  1
  H  H34  1  0.218186  0.852357  0.052044  1
  H  H35  1  0.281814  0.647643  0.552044  1
  H  H36  1  0.781938  0.833808  0.976035  1
  H  H37  1  0.718062  0.666192  0.476035  1
  H  H38  1  0.281938  0.666192  0.023965  1
  H  H39  1  0.218062  0.833808  0.523965  1
  H  H40  1  0.218062  0.166192  0.023965  1
  H  H41  1  0.281938  0.333808  0.523965  1
  H  H42  1  0.718062  0.333808  0.976035  1
  H  H43  1  0.781938  0.166192  0.476035  1
  H  H44  1  0.898682  0.297533  0.884955  1
  H  H45  1  0.601318  0.202467  0.384955  1
  H  H46  1  0.398682  0.202467  0.115045  1
  H  H47  1  0.101318  0.297533  0.615045  1
  H  H48  1  0.101318  0.702467  0.115045  1
  H  H49  1  0.398682  0.797533  0.615045  1
  H  H50  1  0.601318  0.797533  0.884955  1
  H  H51  1  0.898682  0.702467  0.384955  1
  H  H52  1  0.729710  0.531819  0.745380  1
  H  H53  1  0.770290  0.968181  0.245380  1
  H  H54  1  0.229710  0.968181  0.254620  1
  H  H55  1  0.270290  0.531819  0.754620  1
  H  H56  1  0.270290  0.468181  0.254620  1
  H  H57  1  0.229710  0.031819  0.754620  1
  H  H58  1  0.770290  0.031819  0.745380  1
  H  H59  1  0.729710  0.468181  0.245380  1
  H  H60  1  0.908947  0.552123  0.608897  1
  H  H61  1  0.591053  0.947877  0.108897  1
  H  H62  1  0.408947  0.947877  0.391103  1
  H  H63  1  0.091053  0.552123  0.891103  1
  H  H64  1  0.091053  0.447877  0.391103  1
  H  H65  1  0.408947  0.052123  0.891103  1
  H  H66  1  0.591053  0.052123  0.608897  1
  H  H67  1  0.908947  0.447877  0.108897  1
  N  N68  1  0.254809  0.241734  0.087950  1
  N  N69  1  0.245191  0.258266  0.587950  1
  N  N70  1  0.754809  0.258266  0.912050  1
  N  N71  1  0.745191  0.241734  0.412050  1
  N  N72  1  0.745191  0.758266  0.912050  1
  N  N73  1  0.754809  0.741734  0.412050  1
  N  N74  1  0.245191  0.741734  0.087950  1
  N  N75  1  0.254809  0.758266  0.587950  1
