# generated using pymatgen
data_Tb5Ti5O17
_symmetry_space_group_name_H-M   'P 1'
_cell_length_a   3.86182152
_cell_length_b   5.45309659
_cell_length_c   31.75144212
_cell_angle_alpha   90.00000000
_cell_angle_beta   90.00000000
_cell_angle_gamma   90.00000000
_symmetry_Int_Tables_number   1
_chemical_formula_structural   Tb5Ti5O17
_chemical_formula_sum   'Tb10 Ti10 O34'
_cell_volume   668.64999286
_cell_formula_units_Z   2
loop_
 _symmetry_equiv_pos_site_id
 _symmetry_equiv_pos_as_xyz
  1  'x, y, z'
loop_
 _atom_site_type_symbol
 _atom_site_label
 _atom_site_symmetry_multiplicity
 _atom_site_fract_x
 _atom_site_fract_y
 _atom_site_fract_z
 _atom_site_occupancy
  Tb  Tb0  1  0.500000  0.819730  0.516765  1
  Tb  Tb1  1  0.000000  0.180270  0.016765  1
  Tb  Tb2  1  0.000000  0.731733  0.698884  1
  Tb  Tb3  1  0.000000  0.264668  0.792854  1
  Tb  Tb4  1  0.000000  0.320545  0.570938  1
  Tb  Tb5  1  0.000000  0.793217  0.890695  1
  Tb  Tb6  1  0.500000  0.268267  0.198884  1
  Tb  Tb7  1  0.500000  0.735332  0.292854  1
  Tb  Tb8  1  0.500000  0.679455  0.070938  1
  Tb  Tb9  1  0.500000  0.206783  0.390695  1
  Ti  Ti10  1  0.500000  0.770979  0.619131  1
  Ti  Ti11  1  0.500000  0.242722  0.705743  1
  Ti  Ti12  1  0.500000  0.739735  0.796741  1
  Ti  Ti13  1  0.500000  0.243643  0.882437  1
  Ti  Ti14  1  0.500000  0.720115  0.968949  1
  Ti  Ti15  1  0.000000  0.229021  0.119131  1
  Ti  Ti16  1  0.000000  0.757278  0.205743  1
  Ti  Ti17  1  0.000000  0.260265  0.296741  1
  Ti  Ti18  1  0.000000  0.756357  0.382437  1
  Ti  Ti19  1  0.000000  0.279885  0.468949  1
  O  O20  1  0.000000  0.757855  0.964364  1
  O  O21  1  0.500000  0.895403  0.850434  1
  O  O22  1  0.500000  0.397080  0.825187  1
  O  O23  1  0.500000  0.019680  0.927951  1
  O  O24  1  0.500000  0.540335  0.912916  1
  O  O25  1  0.500000  0.242145  0.464364  1
  O  O26  1  0.500000  0.038534  0.581879  1
  O  O27  1  0.500000  0.545419  0.570297  1
  O  O28  1  0.500000  0.925913  0.676213  1
  O  O29  1  0.500000  0.454777  0.661625  1
  O  O30  1  0.500000  0.540917  0.742596  1
  O  O31  1  0.500000  0.034819  0.766290  1
  O  O32  1  0.000000  0.104597  0.350434  1
  O  O33  1  0.000000  0.602920  0.325187  1
  O  O34  1  0.000000  0.980320  0.427951  1
  O  O35  1  0.000000  0.459665  0.412916  1
  O  O36  1  0.000000  0.051161  0.518026  1
  O  O37  1  0.000000  0.547920  0.507546  1
  O  O38  1  0.000000  0.723213  0.625552  1
  O  O39  1  0.000000  0.199568  0.716245  1
  O  O40  1  0.000000  0.698180  0.798588  1
  O  O41  1  0.000000  0.214563  0.872208  1
  O  O42  1  0.000000  0.454581  0.070297  1
  O  O43  1  0.000000  0.961466  0.081879  1
  O  O44  1  0.000000  0.545223  0.161625  1
  O  O45  1  0.000000  0.074087  0.176213  1
  O  O46  1  0.000000  0.965181  0.266290  1
  O  O47  1  0.000000  0.459083  0.242596  1
  O  O48  1  0.500000  0.452080  0.007546  1
  O  O49  1  0.500000  0.948839  0.018026  1
  O  O50  1  0.500000  0.276787  0.125552  1
  O  O51  1  0.500000  0.800432  0.216245  1
  O  O52  1  0.500000  0.301820  0.298588  1
  O  O53  1  0.500000  0.785437  0.372208  1
