# generated using pymatgen
data_NaLi3Ti2Fe2(PO4)6
_symmetry_space_group_name_H-M   'P 1'
_cell_length_a   8.96034296
_cell_length_b   8.96034296
_cell_length_c   8.96034296
_cell_angle_alpha   56.44548385
_cell_angle_beta   56.44548385
_cell_angle_gamma   56.44548385
_symmetry_Int_Tables_number   1
_chemical_formula_structural   NaLi3Ti2Fe2(PO4)6
_chemical_formula_sum   'Na1 Li3 Ti2 Fe2 P6 O24'
_cell_volume   466.89265024
_cell_formula_units_Z   1
loop_
 _symmetry_equiv_pos_site_id
 _symmetry_equiv_pos_as_xyz
  1  'x, y, z'
loop_
 _atom_site_type_symbol
 _atom_site_label
 _atom_site_symmetry_multiplicity
 _atom_site_fract_x
 _atom_site_fract_y
 _atom_site_fract_z
 _atom_site_occupancy
  Na  Na0  1  0.504492  0.504492  0.504492  1
  Li  Li1  1  0.325388  0.077575  0.738510  1
  Li  Li2  1  0.077575  0.738510  0.325388  1
  Li  Li3  1  0.738510  0.325388  0.077575  1
  Ti  Ti4  1  0.146739  0.146739  0.146739  1
  Ti  Ti5  1  0.857364  0.857364  0.857364  1
  Fe  Fe6  1  0.646062  0.646062  0.646062  1
  Fe  Fe7  1  0.347537  0.347537  0.347537  1
  P  P8  1  0.032041  0.464111  0.751243  1
  P  P9  1  0.539938  0.250328  0.957225  1
  P  P10  1  0.250328  0.957225  0.539938  1
  P  P11  1  0.751243  0.032041  0.464111  1
  P  P12  1  0.464111  0.751243  0.032041  1
  P  P13  1  0.957225  0.539938  0.250328  1
  O  O14  1  0.247219  0.136911  0.530310  1
  O  O15  1  0.136911  0.530310  0.247219  1
  O  O16  1  0.999016  0.618248  0.805014  1
  O  O17  1  0.122456  0.259511  0.884730  1
  O  O18  1  0.099222  0.889809  0.733175  1
  O  O19  1  0.530310  0.247219  0.136911  1
  O  O20  1  0.377104  0.194873  0.006361  1
  O  O21  1  0.176952  0.492002  0.541304  1
  O  O22  1  0.520008  0.449072  0.798601  1
  O  O23  1  0.194873  0.006361  0.377104  1
  O  O24  1  0.733175  0.099222  0.889809  1
  O  O25  1  0.449072  0.798601  0.520008  1
  O  O26  1  0.541304  0.176952  0.492002  1
  O  O27  1  0.259511  0.884730  0.122456  1
  O  O28  1  0.805014  0.999016  0.618248  1
  O  O29  1  0.492002  0.541304  0.176952  1
  O  O30  1  0.798601  0.520008  0.449072  1
  O  O31  1  0.618248  0.805014  0.999016  1
  O  O32  1  0.471940  0.786641  0.837543  1
  O  O33  1  0.884730  0.122456  0.259511  1
  O  O34  1  0.889809  0.733175  0.099222  1
  O  O35  1  0.006361  0.377104  0.194873  1
  O  O36  1  0.837543  0.471940  0.786641  1
  O  O37  1  0.786641  0.837543  0.471940  1
