# generated using pymatgen
data_Fe3OF5
_symmetry_space_group_name_H-M   'P 1'
_cell_length_a   4.84973350
_cell_length_b   3.19209723
_cell_length_c   14.47526994
_cell_angle_alpha   90.00000000
_cell_angle_beta   91.03799966
_cell_angle_gamma   90.00000000
_symmetry_Int_Tables_number   1
_chemical_formula_structural   Fe3OF5
_chemical_formula_sum   'Fe6 O2 F10'
_cell_volume   224.05228814
_cell_formula_units_Z   2
loop_
 _symmetry_equiv_pos_site_id
 _symmetry_equiv_pos_as_xyz
  1  'x, y, z'
loop_
 _atom_site_type_symbol
 _atom_site_label
 _atom_site_symmetry_multiplicity
 _atom_site_fract_x
 _atom_site_fract_y
 _atom_site_fract_z
 _atom_site_occupancy
  Fe  Fe0  1  0.000000  0.000000  0.000000  1
  Fe  Fe1  1  0.012886  0.000000  0.669380  1
  Fe  Fe2  1  0.987114  0.000000  0.330620  1
  Fe  Fe3  1  0.471402  0.500000  0.822469  1
  Fe  Fe4  1  0.500000  0.500000  0.500000  1
  Fe  Fe5  1  0.528598  0.500000  0.177531  1
  O  O6  1  0.692219  0.000000  0.228022  1
  O  O7  1  0.307781  0.000000  0.771978  1
  F  F8  1  0.791104  0.500000  0.738464  1
  F  F9  1  0.799192  0.500000  0.403212  1
  F  F10  1  0.786959  0.500000  0.065913  1
  F  F11  1  0.693930  0.000000  0.898296  1
  F  F12  1  0.704934  0.000000  0.570435  1
  F  F13  1  0.295066  0.000000  0.429565  1
  F  F14  1  0.306070  0.000000  0.101704  1
  F  F15  1  0.213041  0.500000  0.934087  1
  F  F16  1  0.200808  0.500000  0.596788  1
  F  F17  1  0.208896  0.500000  0.261536  1
