# generated using pymatgen
data_Mn3(OF2)2
_symmetry_space_group_name_H-M   'P 1'
_cell_length_a   4.87434910
_cell_length_b   4.87434910
_cell_length_c   9.44580549
_cell_angle_alpha   90.00000000
_cell_angle_beta   90.00000000
_cell_angle_gamma   90.00000000
_symmetry_Int_Tables_number   1
_chemical_formula_structural   Mn3(OF2)2
_chemical_formula_sum   'Mn6 O4 F8'
_cell_volume   224.42552942
_cell_formula_units_Z   2
loop_
 _symmetry_equiv_pos_site_id
 _symmetry_equiv_pos_as_xyz
  1  'x, y, z'
loop_
 _atom_site_type_symbol
 _atom_site_label
 _atom_site_symmetry_multiplicity
 _atom_site_fract_x
 _atom_site_fract_y
 _atom_site_fract_z
 _atom_site_occupancy
  Mn  Mn0  1  0.000000  0.000000  0.848862  1
  Mn  Mn1  1  0.000000  0.000000  0.151138  1
  Mn  Mn2  1  0.000000  0.000000  0.500000  1
  Mn  Mn3  1  0.500000  0.500000  0.651138  1
  Mn  Mn4  1  0.500000  0.500000  0.000000  1
  Mn  Mn5  1  0.500000  0.500000  0.348862  1
  O  O6  1  0.185003  0.814997  0.000000  1
  O  O7  1  0.314997  0.314997  0.500000  1
  O  O8  1  0.685003  0.685003  0.500000  1
  O  O9  1  0.814997  0.185003  0.000000  1
  F  F10  1  0.185790  0.814210  0.315140  1
  F  F11  1  0.185790  0.814210  0.684860  1
  F  F12  1  0.314210  0.314210  0.815140  1
  F  F13  1  0.314210  0.314210  0.184860  1
  F  F14  1  0.685790  0.685790  0.815140  1
  F  F15  1  0.685790  0.685790  0.184860  1
  F  F16  1  0.814210  0.185790  0.315140  1
  F  F17  1  0.814210  0.185790  0.684860  1
