# generated using pymatgen
data_LiVP2(HO4)2
_symmetry_space_group_name_H-M   'P 1'
_cell_length_a   9.80926193
_cell_length_b   9.80926193
_cell_length_c   8.63062686
_cell_angle_alpha   73.16334642
_cell_angle_beta   106.83665358
_cell_angle_gamma   62.73365744
_symmetry_Int_Tables_number   1
_chemical_formula_structural   LiVP2(HO4)2
_chemical_formula_sum   'Li4 V4 P8 H8 O32'
_cell_volume   613.33525003
_cell_formula_units_Z   4
loop_
 _symmetry_equiv_pos_site_id
 _symmetry_equiv_pos_as_xyz
  1  'x, y, z'
loop_
 _atom_site_type_symbol
 _atom_site_label
 _atom_site_symmetry_multiplicity
 _atom_site_fract_x
 _atom_site_fract_y
 _atom_site_fract_z
 _atom_site_occupancy
  Li  Li0  1  0.354974  0.439927  0.967370  1
  Li  Li1  1  0.560073  0.645027  0.467370  1
  Li  Li2  1  0.167710  0.122148  0.491437  1
  Li  Li3  1  0.877852  0.832290  0.991437  1
  V  V4  1  0.873342  0.803452  0.628132  1
  V  V5  1  0.418700  0.217486  0.722231  1
  V  V6  1  0.196548  0.126658  0.128132  1
  V  V7  1  0.782514  0.581300  0.222231  1
  P  P8  1  0.171663  0.860865  0.832742  1
  P  P9  1  0.025264  0.422891  0.683827  1
  P  P10  1  0.139135  0.828337  0.332742  1
  P  P11  1  0.588406  0.814391  0.753791  1
  P  P12  1  0.577109  0.974736  0.183827  1
  P  P13  1  0.185609  0.411594  0.253791  1
  P  P14  1  0.648225  0.294465  0.817377  1
  P  P15  1  0.705535  0.351775  0.317377  1
  H  H16  1  0.452093  0.685309  0.900794  1
  H  H17  1  0.243950  0.665251  0.626530  1
  H  H18  1  0.314691  0.547907  0.400794  1
  H  H19  1  0.334749  0.756050  0.126530  1
  H  H20  1  0.814974  0.361306  0.755379  1
  H  H21  1  0.912863  0.137413  0.589880  1
  H  H22  1  0.638694  0.185026  0.255379  1
  H  H23  1  0.862587  0.087137  0.089880  1
  O  O24  1  0.027579  0.831365  0.805957  1
  O  O25  1  0.230780  0.872967  0.017772  1
  O  O26  1  0.107301  0.030247  0.673272  1
  O  O27  1  0.447135  0.002563  0.707749  1
  O  O28  1  0.340819  0.689194  0.870257  1
  O  O29  1  0.168635  0.972421  0.305957  1
  O  O30  1  0.127033  0.769220  0.517772  1
  O  O31  1  0.024677  0.308739  0.856893  1
  O  O32  1  0.969753  0.892699  0.173272  1
  O  O33  1  0.053913  0.557402  0.722556  1
  O  O34  1  0.634209  0.678566  0.948875  1
  O  O35  1  0.760984  0.804095  0.778477  1
  O  O36  1  0.529325  0.766960  0.609757  1
  O  O37  1  0.997437  0.552865  0.207749  1
  O  O38  1  0.175389  0.300098  0.662531  1
  O  O39  1  0.310806  0.659181  0.370257  1
  O  O40  1  0.453392  0.416163  0.762796  1
  O  O41  1  0.691261  0.975323  0.356893  1
  O  O42  1  0.442598  0.946087  0.222556  1
  O  O43  1  0.321434  0.365791  0.448875  1
  O  O44  1  0.793674  0.223265  0.015433  1
  O  O45  1  0.195905  0.239016  0.278477  1
  O  O46  1  0.689470  0.402255  0.687982  1
  O  O47  1  0.233040  0.470675  0.109757  1
  O  O48  1  0.699902  0.824611  0.162531  1
  O  O49  1  0.846747  0.526904  0.505748  1
  O  O50  1  0.583837  0.546608  0.262796  1
  O  O51  1  0.669207  0.134895  0.797349  1
  O  O52  1  0.776735  0.206326  0.515433  1
  O  O53  1  0.597745  0.310530  0.187982  1
  O  O54  1  0.473096  0.153253  0.005748  1
  O  O55  1  0.865105  0.330793  0.297349  1
