# generated using pymatgen
data_Li5Cr4O8
_symmetry_space_group_name_H-M   'P 1'
_cell_length_a   8.38194572
_cell_length_b   8.54712221
_cell_length_c   8.88130980
_cell_angle_alpha   90.00000000
_cell_angle_beta   90.00000000
_cell_angle_gamma   90.00000000
_symmetry_Int_Tables_number   1
_chemical_formula_structural   Li5Cr4O8
_chemical_formula_sum   'Li20 Cr16 O32'
_cell_volume   636.27048434
_cell_formula_units_Z   4
loop_
 _symmetry_equiv_pos_site_id
 _symmetry_equiv_pos_as_xyz
  1  'x, y, z'
loop_
 _atom_site_type_symbol
 _atom_site_label
 _atom_site_symmetry_multiplicity
 _atom_site_fract_x
 _atom_site_fract_y
 _atom_site_fract_z
 _atom_site_occupancy
  Li  Li0  1  0.438445  0.056271  0.455399  1
  Li  Li1  1  0.866851  0.124555  0.901037  1
  Li  Li2  1  0.113222  0.144265  0.125158  1
  Li  Li3  1  0.624761  0.112551  0.646352  1
  Li  Li4  1  0.313392  0.197975  0.294366  1
  Li  Li5  1  0.813392  0.302025  0.705634  1
  Li  Li6  1  0.124761  0.387449  0.353648  1
  Li  Li7  1  0.613222  0.355735  0.874842  1
  Li  Li8  1  0.366851  0.375445  0.098963  1
  Li  Li9  1  0.938445  0.443729  0.544601  1
  Li  Li10  1  0.561555  0.556271  0.044601  1
  Li  Li11  1  0.133149  0.624555  0.598963  1
  Li  Li12  1  0.886778  0.644265  0.374842  1
  Li  Li13  1  0.375239  0.612551  0.853648  1
  Li  Li14  1  0.686608  0.697975  0.205634  1
  Li  Li15  1  0.186608  0.802025  0.794366  1
  Li  Li16  1  0.875239  0.887449  0.146352  1
  Li  Li17  1  0.386778  0.855735  0.625158  1
  Li  Li18  1  0.633149  0.875445  0.401037  1
  Li  Li19  1  0.061555  0.943729  0.955399  1
  Cr  Cr20  1  0.875279  0.123542  0.369451  1
  Cr  Cr21  1  0.124364  0.127158  0.623602  1
  Cr  Cr22  1  0.624364  0.372842  0.376398  1
  Cr  Cr23  1  0.375279  0.376458  0.630549  1
  Cr  Cr24  1  0.124721  0.623542  0.130549  1
  Cr  Cr25  1  0.875636  0.627158  0.876398  1
  Cr  Cr26  1  0.375636  0.872842  0.123602  1
  Cr  Cr27  1  0.624721  0.876458  0.869451  1
  Cr  Cr28  1  0.623452  0.124013  0.120155  1
  Cr  Cr29  1  0.371577  0.123907  0.873972  1
  Cr  Cr30  1  0.871577  0.376093  0.126028  1
  Cr  Cr31  1  0.123452  0.375987  0.879845  1
  Cr  Cr32  1  0.376548  0.624013  0.379845  1
  Cr  Cr33  1  0.628423  0.623907  0.626028  1
  Cr  Cr34  1  0.128423  0.876093  0.373972  1
  Cr  Cr35  1  0.876548  0.875987  0.620155  1
  O  O36  1  0.874606  0.115661  0.602584  1
  O  O37  1  0.117028  0.112288  0.357108  1
  O  O38  1  0.619998  0.116013  0.882124  1
  O  O39  1  0.382951  0.122902  0.104730  1
  O  O40  1  0.867173  0.130619  0.133343  1
  O  O41  1  0.374358  0.139858  0.643210  1
  O  O42  1  0.629269  0.123873  0.353975  1
  O  O43  1  0.131319  0.140202  0.891249  1
  O  O44  1  0.631319  0.359798  0.108751  1
  O  O45  1  0.129269  0.376127  0.646025  1
  O  O46  1  0.874358  0.360142  0.356790  1
  O  O47  1  0.367173  0.369381  0.866657  1
  O  O48  1  0.882951  0.377098  0.895270  1
  O  O49  1  0.119998  0.383987  0.117876  1
  O  O50  1  0.617028  0.387712  0.642892  1
  O  O51  1  0.374606  0.384339  0.397416  1
  O  O52  1  0.125394  0.615661  0.897416  1
  O  O53  1  0.882972  0.612288  0.142892  1
  O  O54  1  0.380002  0.616013  0.617876  1
  O  O55  1  0.617049  0.622902  0.395270  1
  O  O56  1  0.132827  0.630619  0.366657  1
  O  O57  1  0.625642  0.639858  0.856790  1
  O  O58  1  0.370731  0.623873  0.146025  1
  O  O59  1  0.868681  0.640202  0.608751  1
  O  O60  1  0.368681  0.859798  0.391249  1
  O  O61  1  0.870731  0.876127  0.853975  1
  O  O62  1  0.125642  0.860142  0.143210  1
  O  O63  1  0.632827  0.869381  0.633343  1
  O  O64  1  0.117049  0.877098  0.604730  1
  O  O65  1  0.880002  0.883987  0.382124  1
  O  O66  1  0.382972  0.887712  0.857108  1
  O  O67  1  0.625394  0.884339  0.102584  1
