# generated using pymatgen
data_PrSmO2
_symmetry_space_group_name_H-M   'P 1'
_cell_length_a   6.34428918
_cell_length_b   6.34428918
_cell_length_c   6.34428918
_cell_angle_alpha   32.38904587
_cell_angle_beta   32.38904587
_cell_angle_gamma   32.38904587
_symmetry_Int_Tables_number   1
_chemical_formula_structural   PrSmO2
_chemical_formula_sum   'Pr1 Sm1 O2'
_cell_volume   65.14152654
_cell_formula_units_Z   1
loop_
 _symmetry_equiv_pos_site_id
 _symmetry_equiv_pos_as_xyz
  1  'x, y, z'
loop_
 _atom_site_type_symbol
 _atom_site_label
 _atom_site_symmetry_multiplicity
 _atom_site_fract_x
 _atom_site_fract_y
 _atom_site_fract_z
 _atom_site_occupancy
  Pr  Pr0  1  0.500000  0.500000  0.500000  1
  Sm  Sm1  1  0.000000  0.000000  0.000000  1
  O  O2  1  0.263032  0.263032  0.263032  1
  O  O3  1  0.736968  0.736968  0.736968  1
