# generated using pymatgen
data_Ag7PSe6
_symmetry_space_group_name_H-M   'P 1'
_cell_length_a   10.96378268
_cell_length_b   10.96378268
_cell_length_c   10.96378268
_cell_angle_alpha   90.00000000
_cell_angle_beta   90.00000000
_cell_angle_gamma   90.00000000
_symmetry_Int_Tables_number   1
_chemical_formula_structural   Ag7PSe6
_chemical_formula_sum   'Ag28 P4 Se24'
_cell_volume   1317.89635124
_cell_formula_units_Z   4
loop_
 _symmetry_equiv_pos_site_id
 _symmetry_equiv_pos_as_xyz
  1  'x, y, z'
loop_
 _atom_site_type_symbol
 _atom_site_label
 _atom_site_symmetry_multiplicity
 _atom_site_fract_x
 _atom_site_fract_y
 _atom_site_fract_z
 _atom_site_occupancy
  Ag  Ag0  1  0.070073  0.892966  0.727794  1
  Ag  Ag1  1  0.727794  0.070073  0.892966  1
  Ag  Ag2  1  0.892966  0.727794  0.070073  1
  Ag  Ag3  1  0.607034  0.272206  0.570073  1
  Ag  Ag4  1  0.227794  0.429927  0.107034  1
  Ag  Ag5  1  0.107034  0.227794  0.429927  1
  Ag  Ag6  1  0.772206  0.929927  0.392966  1
  Ag  Ag7  1  0.272206  0.570073  0.607034  1
  Ag  Ag8  1  0.392966  0.772206  0.929927  1
  Ag  Ag9  1  0.570073  0.607034  0.272206  1
  Ag  Ag10  1  0.929927  0.392966  0.772206  1
  Ag  Ag11  1  0.429927  0.107034  0.227794  1
  Ag  Ag12  1  0.010407  0.018415  0.278973  1
  Ag  Ag13  1  0.278973  0.010407  0.018415  1
  Ag  Ag14  1  0.018415  0.278973  0.010407  1
  Ag  Ag15  1  0.481585  0.721027  0.510407  1
  Ag  Ag16  1  0.778973  0.489593  0.981585  1
  Ag  Ag17  1  0.981585  0.778973  0.489593  1
  Ag  Ag18  1  0.221027  0.989593  0.518415  1
  Ag  Ag19  1  0.721027  0.510407  0.481585  1
  Ag  Ag20  1  0.518415  0.221027  0.989593  1
  Ag  Ag21  1  0.510407  0.481585  0.721027  1
  Ag  Ag22  1  0.989593  0.518415  0.221027  1
  Ag  Ag23  1  0.489593  0.981585  0.778973  1
  Ag  Ag24  1  0.344750  0.344750  0.344750  1
  Ag  Ag25  1  0.155250  0.655250  0.844750  1
  Ag  Ag26  1  0.844750  0.155250  0.655250  1
  Ag  Ag27  1  0.655250  0.844750  0.155250  1
  P  P28  1  0.745423  0.745423  0.745423  1
  P  P29  1  0.754577  0.254577  0.245423  1
  P  P30  1  0.245423  0.754577  0.254577  1
  P  P31  1  0.254577  0.245423  0.754577  1
  Se  Se32  1  0.865362  0.865362  0.865362  1
  Se  Se33  1  0.634638  0.134638  0.365362  1
  Se  Se34  1  0.365362  0.634638  0.134638  1
  Se  Se35  1  0.134638  0.365362  0.634638  1
  Se  Se36  1  0.360801  0.367656  0.880052  1
  Se  Se37  1  0.880052  0.360801  0.367656  1
  Se  Se38  1  0.367656  0.880052  0.360801  1
  Se  Se39  1  0.132344  0.119948  0.860801  1
  Se  Se40  1  0.380052  0.139199  0.632344  1
  Se  Se41  1  0.632344  0.380052  0.139199  1
  Se  Se42  1  0.619948  0.639199  0.867656  1
  Se  Se43  1  0.119948  0.860801  0.132344  1
  Se  Se44  1  0.867656  0.619948  0.639199  1
  Se  Se45  1  0.860801  0.132344  0.119948  1
  Se  Se46  1  0.639199  0.867656  0.619948  1
  Se  Se47  1  0.139199  0.632344  0.380052  1
  Se  Se48  1  0.211730  0.211730  0.211730  1
  Se  Se49  1  0.288270  0.788270  0.711730  1
  Se  Se50  1  0.711730  0.288270  0.788270  1
  Se  Se51  1  0.788270  0.711730  0.288270  1
  Se  Se52  1  0.479306  0.479306  0.479306  1
  Se  Se53  1  0.020694  0.520694  0.979306  1
  Se  Se54  1  0.979306  0.020694  0.520694  1
  Se  Se55  1  0.520694  0.979306  0.020694  1
