# generated using pymatgen
data_CrCu(PO4)2
_symmetry_space_group_name_H-M   'P 1'
_cell_length_a   4.92297903
_cell_length_b   5.93776300
_cell_length_c   9.92816770
_cell_angle_alpha   90.00000000
_cell_angle_beta   93.50323651
_cell_angle_gamma   90.00000000
_symmetry_Int_Tables_number   1
_chemical_formula_structural   CrCu(PO4)2
_chemical_formula_sum   'Cr2 Cu2 P4 O16'
_cell_volume   289.67275204
_cell_formula_units_Z   2
loop_
 _symmetry_equiv_pos_site_id
 _symmetry_equiv_pos_as_xyz
  1  'x, y, z'
loop_
 _atom_site_type_symbol
 _atom_site_label
 _atom_site_symmetry_multiplicity
 _atom_site_fract_x
 _atom_site_fract_y
 _atom_site_fract_z
 _atom_site_occupancy
  Cr  Cr0  1  0.462965  0.750000  0.219620  1
  Cr  Cr1  1  0.537035  0.250000  0.780380  1
  Cu  Cu2  1  0.887672  0.250000  0.292862  1
  Cu  Cu3  1  0.112328  0.750000  0.707138  1
  P  P4  1  0.407333  0.250000  0.097619  1
  P  P5  1  0.928666  0.750000  0.400685  1
  P  P6  1  0.071334  0.250000  0.599315  1
  P  P7  1  0.592667  0.750000  0.902381  1
  O  O8  1  0.665012  0.750000  0.054726  1
  O  O9  1  0.724827  0.250000  0.119630  1
  O  O10  1  0.285207  0.039149  0.166358  1
  O  O11  1  0.285207  0.460851  0.166358  1
  O  O12  1  0.757038  0.946606  0.327250  1
  O  O13  1  0.757038  0.553394  0.327250  1
  O  O14  1  0.228788  0.750000  0.377250  1
  O  O15  1  0.125138  0.250000  0.448294  1
  O  O16  1  0.874862  0.750000  0.551706  1
  O  O17  1  0.771212  0.250000  0.622750  1
  O  O18  1  0.242962  0.053394  0.672750  1
  O  O19  1  0.242962  0.446606  0.672750  1
  O  O20  1  0.714793  0.539149  0.833642  1
  O  O21  1  0.714793  0.960851  0.833642  1
  O  O22  1  0.275173  0.750000  0.880370  1
  O  O23  1  0.334988  0.250000  0.945274  1
