# generated using pymatgen
data_VOF
_symmetry_space_group_name_H-M   'P 1'
_cell_length_a   4.75446350
_cell_length_b   3.10144609
_cell_length_c   14.20651119
_cell_angle_alpha   90.00000000
_cell_angle_beta   91.74612700
_cell_angle_gamma   90.00000000
_symmetry_Int_Tables_number   1
_chemical_formula_structural   VOF
_chemical_formula_sum   'V6 O6 F6'
_cell_volume   209.38785216
_cell_formula_units_Z   6
loop_
 _symmetry_equiv_pos_site_id
 _symmetry_equiv_pos_as_xyz
  1  'x, y, z'
loop_
 _atom_site_type_symbol
 _atom_site_label
 _atom_site_symmetry_multiplicity
 _atom_site_fract_x
 _atom_site_fract_y
 _atom_site_fract_z
 _atom_site_occupancy
  V  V0  1  0.000000  0.000000  0.000000  1
  V  V1  1  0.975157  0.000000  0.666924  1
  V  V2  1  0.024843  0.000000  0.333076  1
  V  V3  1  0.430257  0.500000  0.833176  1
  V  V4  1  0.500000  0.500000  0.500000  1
  V  V5  1  0.569743  0.500000  0.166824  1
  O  O6  1  0.814791  0.500000  0.064660  1
  O  O7  1  0.734636  0.000000  0.234923  1
  O  O8  1  0.688759  0.000000  0.567286  1
  O  O9  1  0.265364  0.000000  0.765077  1
  O  O10  1  0.311241  0.000000  0.432714  1
  O  O11  1  0.185209  0.500000  0.935340  1
  F  F12  1  0.773721  0.500000  0.734335  1
  F  F13  1  0.821046  0.500000  0.398921  1
  F  F14  1  0.679159  0.000000  0.894833  1
  F  F15  1  0.320841  0.000000  0.105167  1
  F  F16  1  0.178954  0.500000  0.601079  1
  F  F17  1  0.226279  0.500000  0.265665  1
