# generated using pymatgen
data_Li8IrO6
_symmetry_space_group_name_H-M   'P 1'
_cell_length_a   5.95155070
_cell_length_b   5.95155070
_cell_length_c   5.95155070
_cell_angle_alpha   54.72796701
_cell_angle_beta   54.72796701
_cell_angle_gamma   54.72796701
_symmetry_Int_Tables_number   1
_chemical_formula_structural   Li8IrO6
_chemical_formula_sum   'Li8 Ir1 O6'
_cell_volume   130.75987321
_cell_formula_units_Z   1
loop_
 _symmetry_equiv_pos_site_id
 _symmetry_equiv_pos_as_xyz
  1  'x, y, z'
loop_
 _atom_site_type_symbol
 _atom_site_label
 _atom_site_symmetry_multiplicity
 _atom_site_fract_x
 _atom_site_fract_y
 _atom_site_fract_z
 _atom_site_occupancy
  Li  Li0  1  0.658773  0.658773  0.658773  1
  Li  Li1  1  0.100747  0.765686  0.484713  1
  Li  Li2  1  0.484713  0.100747  0.765686  1
  Li  Li3  1  0.765686  0.484713  0.100747  1
  Li  Li4  1  0.899253  0.234314  0.515287  1
  Li  Li5  1  0.515287  0.899253  0.234314  1
  Li  Li6  1  0.341227  0.341227  0.341227  1
  Li  Li7  1  0.234314  0.515287  0.899253  1
  Ir  Ir8  1  0.000000  0.000000  0.000000  1
  O  O9  1  0.090402  0.384492  0.763982  1
  O  O10  1  0.615508  0.236018  0.909598  1
  O  O11  1  0.909598  0.615508  0.236018  1
  O  O12  1  0.763982  0.090402  0.384492  1
  O  O13  1  0.384492  0.763982  0.090402  1
  O  O14  1  0.236018  0.909598  0.615508  1
