# generated using pymatgen
data_Li2VF5
_symmetry_space_group_name_H-M   'P 1'
_cell_length_a   6.16533480
_cell_length_b   6.32420548
_cell_length_c   9.12366169
_cell_angle_alpha   90.00000000
_cell_angle_beta   90.00000000
_cell_angle_gamma   90.00000000
_symmetry_Int_Tables_number   1
_chemical_formula_structural   Li2VF5
_chemical_formula_sum   'Li8 V4 F20'
_cell_volume   355.73927083
_cell_formula_units_Z   4
loop_
 _symmetry_equiv_pos_site_id
 _symmetry_equiv_pos_as_xyz
  1  'x, y, z'
loop_
 _atom_site_type_symbol
 _atom_site_label
 _atom_site_symmetry_multiplicity
 _atom_site_fract_x
 _atom_site_fract_y
 _atom_site_fract_z
 _atom_site_occupancy
  Li  Li0  1  0.548379  0.527608  0.831241  1
  Li  Li1  1  0.548379  0.972392  0.831241  1
  Li  Li2  1  0.048379  0.472392  0.668759  1
  Li  Li3  1  0.048379  0.027608  0.668759  1
  Li  Li4  1  0.951621  0.527608  0.331241  1
  Li  Li5  1  0.951621  0.972392  0.331241  1
  Li  Li6  1  0.451621  0.472392  0.168759  1
  Li  Li7  1  0.451621  0.027608  0.168759  1
  V  V8  1  0.064404  0.750000  0.983698  1
  V  V9  1  0.564404  0.250000  0.516302  1
  V  V10  1  0.435596  0.750000  0.483698  1
  V  V11  1  0.935596  0.250000  0.016302  1
  F  F12  1  0.391894  0.750000  0.949178  1
  F  F13  1  0.826478  0.964479  0.934274  1
  F  F14  1  0.826478  0.535521  0.934274  1
  F  F15  1  0.078455  0.250000  0.818723  1
  F  F16  1  0.083553  0.750000  0.762973  1
  F  F17  1  0.583553  0.250000  0.737027  1
  F  F18  1  0.578455  0.750000  0.681277  1
  F  F19  1  0.326478  0.035521  0.565726  1
  F  F20  1  0.326478  0.464479  0.565726  1
  F  F21  1  0.891894  0.250000  0.550822  1
  F  F22  1  0.108106  0.750000  0.449178  1
  F  F23  1  0.673522  0.964479  0.434274  1
  F  F24  1  0.673522  0.535521  0.434274  1
  F  F25  1  0.421545  0.250000  0.318723  1
  F  F26  1  0.416447  0.750000  0.262973  1
  F  F27  1  0.916447  0.250000  0.237027  1
  F  F28  1  0.921545  0.750000  0.181277  1
  F  F29  1  0.173522  0.035521  0.065726  1
  F  F30  1  0.173522  0.464479  0.065726  1
  F  F31  1  0.608106  0.250000  0.050822  1
