# generated using pymatgen
data_Li4MnF6
_symmetry_space_group_name_H-M   'P 1'
_cell_length_a   8.83607312
_cell_length_b   8.83607312
_cell_length_c   4.94861947
_cell_angle_alpha   90.00000000
_cell_angle_beta   90.00000000
_cell_angle_gamma   120.00000000
_symmetry_Int_Tables_number   1
_chemical_formula_structural   Li4MnF6
_chemical_formula_sum   'Li12 Mn3 F18'
_cell_volume   334.60566837
_cell_formula_units_Z   3
loop_
 _symmetry_equiv_pos_site_id
 _symmetry_equiv_pos_as_xyz
  1  'x, y, z'
loop_
 _atom_site_type_symbol
 _atom_site_label
 _atom_site_symmetry_multiplicity
 _atom_site_fract_x
 _atom_site_fract_y
 _atom_site_fract_z
 _atom_site_occupancy
  Li  Li0  1  0.000000  0.314305  0.000000  1
  Li  Li1  1  0.000000  0.350636  0.500000  1
  Li  Li2  1  0.314305  0.314305  0.000000  1
  Li  Li3  1  0.000000  0.649364  0.500000  1
  Li  Li4  1  0.000000  0.685695  0.000000  1
  Li  Li5  1  0.350636  0.350636  0.500000  1
  Li  Li6  1  0.649364  0.649364  0.500000  1
  Li  Li7  1  0.314305  0.000000  0.000000  1
  Li  Li8  1  0.350636  0.000000  0.500000  1
  Li  Li9  1  0.685695  0.685695  0.000000  1
  Li  Li10  1  0.649364  0.000000  0.500000  1
  Li  Li11  1  0.685695  0.000000  0.000000  1
  Mn  Mn12  1  0.666667  0.333333  0.008102  1
  Mn  Mn13  1  0.333333  0.666667  0.991898  1
  Mn  Mn14  1  0.000000  0.000000  0.500000  1
  F  F15  1  0.238929  0.119464  0.271084  1
  F  F16  1  0.426573  0.213286  0.775188  1
  F  F17  1  0.547292  0.094584  0.240728  1
  F  F18  1  0.547292  0.452708  0.240728  1
  F  F19  1  0.786714  0.213286  0.775188  1
  F  F20  1  0.880536  0.119464  0.271084  1
  F  F21  1  0.119464  0.238929  0.728916  1
  F  F22  1  0.786714  0.573427  0.775188  1
  F  F23  1  0.905416  0.452708  0.240728  1
  F  F24  1  0.880536  0.761071  0.271084  1
  F  F25  1  0.213286  0.426573  0.224812  1
  F  F26  1  0.094584  0.547292  0.759272  1
  F  F27  1  0.452708  0.547292  0.759272  1
  F  F28  1  0.213286  0.786714  0.224812  1
  F  F29  1  0.119464  0.880536  0.728916  1
  F  F30  1  0.573427  0.786714  0.224812  1
  F  F31  1  0.452708  0.905416  0.759272  1
  F  F32  1  0.761071  0.880536  0.728916  1
