# generated using pymatgen
data_Cs9AlO4
_symmetry_space_group_name_H-M   'P 1'
_cell_length_a   12.48836400
_cell_length_b   12.48836400
_cell_length_c   12.48836400
_cell_angle_alpha   104.91518246
_cell_angle_beta   104.91518246
_cell_angle_gamma   119.02703684
_symmetry_Int_Tables_number   1
_chemical_formula_structural   Cs9AlO4
_chemical_formula_sum   'Cs18 Al2 O8'
_cell_volume   1467.58402052
_cell_formula_units_Z   2
loop_
 _symmetry_equiv_pos_site_id
 _symmetry_equiv_pos_as_xyz
  1  'x, y, z'
loop_
 _atom_site_type_symbol
 _atom_site_label
 _atom_site_symmetry_multiplicity
 _atom_site_fract_x
 _atom_site_fract_y
 _atom_site_fract_z
 _atom_site_occupancy
  Cs  Cs0  1  0.583201  0.083201  0.666402  1
  Cs  Cs1  1  0.416799  0.916799  0.333598  1
  Cs  Cs2  1  0.083201  0.416799  0.500000  1
  Cs  Cs3  1  0.916799  0.583201  0.500000  1
  Cs  Cs4  1  0.000000  0.000000  0.000000  1
  Cs  Cs5  1  0.500000  0.500000  0.000000  1
  Cs  Cs6  1  0.518939  0.250000  0.268939  1
  Cs  Cs7  1  0.981061  0.250000  0.731061  1
  Cs  Cs8  1  0.250000  0.981061  0.731061  1
  Cs  Cs9  1  0.250000  0.518939  0.268939  1
  Cs  Cs10  1  0.481061  0.750000  0.731061  1
  Cs  Cs11  1  0.018939  0.750000  0.268939  1
  Cs  Cs12  1  0.750000  0.018939  0.268939  1
  Cs  Cs13  1  0.750000  0.481061  0.731061  1
  Cs  Cs14  1  0.167458  0.667458  0.834915  1
  Cs  Cs15  1  0.832542  0.332542  0.165085  1
  Cs  Cs16  1  0.667458  0.832542  0.500000  1
  Cs  Cs17  1  0.332542  0.167458  0.500000  1
  Al  Al18  1  0.250000  0.750000  0.500000  1
  Al  Al19  1  0.750000  0.250000  0.500000  1
  O  O20  1  0.233524  0.733524  0.636832  1
  O  O21  1  0.096691  0.596691  0.363168  1
  O  O22  1  0.403309  0.766476  0.500000  1
  O  O23  1  0.266476  0.903309  0.500000  1
  O  O24  1  0.766476  0.266476  0.363168  1
  O  O25  1  0.903309  0.403309  0.636832  1
  O  O26  1  0.733524  0.096691  0.500000  1
  O  O27  1  0.596691  0.233524  0.500000  1
