# generated using pymatgen
data_Li6Mn5Fe(BO3)6
_symmetry_space_group_name_H-M   'P 1'
_cell_length_a   8.85441166
_cell_length_b   8.85441166
_cell_length_c   8.27575387
_cell_angle_alpha   62.23912435
_cell_angle_beta   117.76087565
_cell_angle_gamma   137.84738395
_symmetry_Int_Tables_number   1
_chemical_formula_structural   Li6Mn5Fe(BO3)6
_chemical_formula_sum   'Li6 Mn5 Fe1 B6 O18'
_cell_volume   377.30105722
_cell_formula_units_Z   1
loop_
 _symmetry_equiv_pos_site_id
 _symmetry_equiv_pos_as_xyz
  1  'x, y, z'
loop_
 _atom_site_type_symbol
 _atom_site_label
 _atom_site_symmetry_multiplicity
 _atom_site_fract_x
 _atom_site_fract_y
 _atom_site_fract_z
 _atom_site_occupancy
  Li  Li0  1  0.740843  0.758379  0.283723  1
  Li  Li1  1  0.241621  0.259157  0.283723  1
  Li  Li2  1  0.899906  0.598839  0.016756  1
  Li  Li3  1  0.401161  0.100094  0.016756  1
  Li  Li4  1  0.607681  0.891184  0.698370  1
  Li  Li5  1  0.108816  0.392319  0.698370  1
  Mn  Mn6  1  0.179451  0.820549  0.371090  1
  Mn  Mn7  1  0.679936  0.320064  0.371586  1
  Mn  Mn8  1  0.006048  0.993952  0.641196  1
  Mn  Mn9  1  0.814278  0.185722  0.988022  1
  Mn  Mn10  1  0.314180  0.685820  0.988234  1
  Fe  Fe11  1  0.504146  0.495854  0.639996  1
  B  B12  1  0.085759  0.418286  0.334288  1
  B  B13  1  0.581714  0.914241  0.334288  1
  B  B14  1  0.914839  0.582885  0.666474  1
  B  B15  1  0.417115  0.085161  0.666474  1
  B  B16  1  0.999981  0.000019  0.000193  1
  B  B17  1  0.500943  0.499057  0.999526  1
  O  O18  1  0.460512  0.539488  0.112289  1
  O  O19  1  0.960954  0.039046  0.115768  1
  O  O20  1  0.540635  0.958901  0.140957  1
  O  O21  1  0.041099  0.459365  0.140957  1
  O  O22  1  0.096806  0.903194  0.077954  1
  O  O23  1  0.597625  0.402375  0.079306  1
  O  O24  1  0.184849  0.323497  0.442251  1
  O  O25  1  0.676503  0.815151  0.442251  1
  O  O26  1  0.529626  0.970088  0.419842  1
  O  O27  1  0.029912  0.470374  0.419842  1
  O  O28  1  0.874825  0.624412  0.472939  1
  O  O29  1  0.375588  0.125175  0.472939  1
  O  O30  1  0.444624  0.555376  0.805121  1
  O  O31  1  0.942105  0.057895  0.806814  1
  O  O32  1  0.013527  0.487459  0.777878  1
  O  O33  1  0.512541  0.986473  0.777878  1
  O  O34  1  0.857348  0.637517  0.747975  1
  O  O35  1  0.362483  0.142652  0.747975  1
