# generated using pymatgen
data_AgH36S8Br2(N3O4)3
_symmetry_space_group_name_H-M   'P 1'
_cell_length_a   12.52906069
_cell_length_b   12.52906069
_cell_length_c   12.52906069
_cell_angle_alpha   115.85766774
_cell_angle_beta   115.85766774
_cell_angle_gamma   97.33820134
_symmetry_Int_Tables_number   1
_chemical_formula_structural   AgH36S8Br2(N3O4)3
_chemical_formula_sum   'Ag2 H72 S16 Br4 N18 O24'
_cell_volume   1464.77388002
_cell_formula_units_Z   2
loop_
 _symmetry_equiv_pos_site_id
 _symmetry_equiv_pos_as_xyz
  1  'x, y, z'
loop_
 _atom_site_type_symbol
 _atom_site_label
 _atom_site_symmetry_multiplicity
 _atom_site_fract_x
 _atom_site_fract_y
 _atom_site_fract_z
 _atom_site_occupancy
  Ag  Ag0  1  0.000000  0.000000  0.000000  1
  Ag  Ag1  1  0.750000  0.250000  0.500000  1
  H  H2  1  0.807026  0.090580  0.103570  1
  H  H3  1  0.827892  0.050680  0.222863  1
  H  H4  1  0.922183  0.199320  0.277212  1
  H  H5  1  0.797498  0.335890  0.021857  1
  H  H6  1  0.952502  0.474358  0.038391  1
  H  H7  1  0.762990  0.159420  0.216446  1
  H  H8  1  0.690118  0.278330  0.048845  1
  H  H9  1  0.909420  0.012990  0.716446  1
  H  H10  1  0.840580  0.057026  0.603570  1
  H  H11  1  0.277444  0.187308  0.006457  1
  H  H12  1  0.747910  0.658434  0.007599  1
  H  H13  1  0.800680  0.077892  0.722863  1
  H  H14  1  0.949320  0.172183  0.777212  1
  H  H15  1  0.355029  0.077817  0.277137  1
  H  H16  1  0.394971  0.172108  0.222788  1
  H  H17  1  0.527418  0.468369  0.068260  1
  H  H18  1  0.569149  0.062692  0.590136  1
  H  H19  1  0.341566  0.349164  0.089476  1
  H  H20  1  0.937308  0.527444  0.506457  1
  H  H21  1  0.812692  0.819149  0.090136  1
  H  H22  1  0.531631  0.599891  0.059049  1
  H  H23  1  0.453456  0.237010  0.396430  1
  H  H24  1  0.296544  0.192974  0.283554  1
  H  H25  1  0.688536  0.608541  0.332307  1
  H  H26  1  0.934369  0.936879  0.396773  1
  H  H27  1  0.815631  0.712404  0.502510  1
  H  H28  1  0.942974  0.546544  0.783554  1
  H  H29  1  0.391459  0.723767  0.079995  1
  H  H30  1  0.686879  0.184369  0.896773  1
  H  H31  1  0.063121  0.459894  0.997490  1
  H  H32  1  0.922108  0.644971  0.722788  1
  H  H33  1  0.721670  0.770515  0.411788  1
  H  H34  1  0.085890  0.047498  0.521857  1
  H  H35  1  0.664110  0.685967  0.461609  1
  H  H36  1  0.525642  0.564033  0.478143  1
  H  H37  1  0.224358  0.202502  0.538391  1
  H  H38  1  0.391274  0.479485  0.451155  1
  H  H39  1  0.358726  0.309882  0.588212  1
  H  H40  1  0.827817  0.605029  0.777137  1
  H  H41  1  0.462404  0.065631  0.002510  1
  H  H42  1  0.287596  0.790106  0.103227  1
  H  H43  1  0.643772  0.311464  0.920005  1
  H  H44  1  0.106228  0.526233  0.167693  1
  H  H45  1  0.987010  0.703456  0.896430  1
  H  H46  1  0.540106  0.537596  0.603227  1
  H  H47  1  0.209894  0.313121  0.497490  1
  H  H48  1  0.059882  0.608726  0.088212  1
  H  H49  1  0.276233  0.356228  0.667693  1
  H  H50  1  0.473767  0.641459  0.579995  1
  H  H51  1  0.209158  0.650109  0.431740  1
  H  H52  1  0.540842  0.472582  0.940951  1
  H  H53  1  0.020988  0.430851  0.493543  1
  H  H54  1  0.729012  0.722556  0.909864  1
  H  H55  1  0.259689  0.252090  0.910524  1
  H  H56  1  0.490311  0.900836  0.492401  1
  H  H57  1  0.472556  0.979012  0.409864  1
  H  H58  1  0.002090  0.509689  0.410524  1
  H  H59  1  0.400109  0.459158  0.931740  1
  H  H60  1  0.349891  0.781631  0.559049  1
  H  H61  1  0.222582  0.790842  0.440951  1
  H  H62  1  0.099164  0.591566  0.589476  1
  H  H63  1  0.650836  0.740311  0.992401  1
  H  H64  1  0.180851  0.270988  0.993543  1
  H  H65  1  0.408434  0.997910  0.507599  1
  H  H66  1  0.218369  0.777418  0.568260  1
  H  H67  1  0.061464  0.893772  0.420005  1
  H  H68  1  0.520515  0.971670  0.911788  1
  H  H69  1  0.229485  0.641274  0.951155  1
  H  H70  1  0.358541  0.938536  0.832307  1
  H  H71  1  0.435967  0.914110  0.961609  1
  H  H72  1  0.314033  0.775642  0.978143  1
  H  H73  1  0.028330  0.940118  0.548845  1
  S  S74  1  0.995996  0.224495  0.057402  1
  S  S75  1  0.582906  0.025505  0.271501  1
  S  S76  1  0.974495  0.245996  0.557402  1
  S  S77  1  0.061406  0.004004  0.228499  1
  S  S78  1  0.688594  0.417094  0.442598  1
  S  S79  1  0.754004  0.311406  0.728499  1
  S  S80  1  0.775505  0.832906  0.771501  1
  S  S81  1  0.167094  0.938594  0.942598  1
  S  S82  1  0.603697  0.328514  0.229779  1
  S  S83  1  0.626082  0.396303  0.724817  1
  S  S84  1  0.123918  0.348735  0.270221  1
  S  S85  1  0.671486  0.901265  0.275183  1
  S  S86  1  0.146303  0.876082  0.224817  1
  S  S87  1  0.098735  0.373918  0.770221  1
  S  S88  1  0.651265  0.921486  0.775183  1
  S  S89  1  0.078514  0.853697  0.729779  1
  Br  Br90  1  0.875000  0.614304  0.239304  1
  Br  Br91  1  0.385696  0.625000  0.260696  1
  Br  Br92  1  0.364304  0.125000  0.739304  1
  Br  Br93  1  0.375000  0.635696  0.760696  1
  N  N94  1  0.831465  0.125000  0.206465  1
  N  N95  1  0.875000  0.081465  0.706465  1
  N  N96  1  0.264447  0.264447  0.000000  1
  N  N97  1  0.500000  0.500000  0.000000  1
  N  N98  1  0.735553  0.735553  0.000000  1
  N  N99  1  0.375000  0.168535  0.293535  1
  N  N100  1  0.723626  0.694656  0.426740  1
  N  N101  1  0.305344  0.732084  0.028970  1
  N  N102  1  0.918535  0.625000  0.793535  1
  N  N103  1  0.703114  0.276374  0.971030  1
  N  N104  1  0.046886  0.517916  0.073260  1
  N  N105  1  0.482084  0.555344  0.528970  1
  N  N106  1  0.267916  0.296886  0.573260  1
  N  N107  1  0.014447  0.514447  0.500000  1
  N  N108  1  0.485553  0.985553  0.500000  1
  N  N109  1  0.250000  0.750000  0.500000  1
  N  N110  1  0.026374  0.953114  0.471030  1
  N  N111  1  0.444656  0.973626  0.926740  1
  O  O112  1  0.693320  0.282722  0.191210  1
  O  O113  1  0.481530  0.214964  0.152132  1
  O  O114  1  0.573680  0.424053  0.194981  1
  O  O115  1  0.687168  0.035036  0.766566  1
  O  O116  1  0.575947  0.770928  0.149627  1
  O  O117  1  0.252109  0.341512  0.308790  1
  O  O118  1  0.497891  0.306680  0.589403  1
  O  O119  1  0.964964  0.731530  0.652132  1
  O  O120  1  0.785036  0.937168  0.266566  1
  O  O121  1  0.079397  0.312832  0.347868  1
  O  O122  1  0.670603  0.518470  0.733434  1
  O  O123  1  0.717278  0.908488  0.410597  1
  O  O124  1  0.621301  0.426320  0.850373  1
  O  O125  1  0.128699  0.479072  0.305019  1
  O  O126  1  0.056680  0.747891  0.089403  1
  O  O127  1  0.268470  0.920603  0.233434  1
  O  O128  1  0.229072  0.378699  0.805019  1
  O  O129  1  0.520928  0.825947  0.649627  1
  O  O130  1  0.176320  0.871301  0.350373  1
  O  O131  1  0.062832  0.329397  0.847868  1
  O  O132  1  0.091512  0.502109  0.808790  1
  O  O133  1  0.658488  0.967278  0.910597  1
  O  O134  1  0.174053  0.823680  0.694981  1
  O  O135  1  0.032722  0.943320  0.691210  1
