# generated using pymatgen
data_LiMn3(BO3)3
_symmetry_space_group_name_H-M   'P 1'
_cell_length_a   5.34574800
_cell_length_b   5.94514849
_cell_length_c   12.84466950
_cell_angle_alpha   93.64937482
_cell_angle_beta   89.88362375
_cell_angle_gamma   114.71594724
_symmetry_Int_Tables_number   1
_chemical_formula_structural   LiMn3(BO3)3
_chemical_formula_sum   'Li2 Mn6 B6 O18'
_cell_volume   369.93556217
_cell_formula_units_Z   2
loop_
 _symmetry_equiv_pos_site_id
 _symmetry_equiv_pos_as_xyz
  1  'x, y, z'
loop_
 _atom_site_type_symbol
 _atom_site_label
 _atom_site_symmetry_multiplicity
 _atom_site_fract_x
 _atom_site_fract_y
 _atom_site_fract_z
 _atom_site_occupancy
  Li  Li0  1  0.803346  0.932244  0.261719  1
  Li  Li1  1  0.196654  0.067756  0.738281  1
  Mn  Mn2  1  0.244655  0.857064  0.124411  1
  Mn  Mn3  1  0.416486  0.434507  0.193021  1
  Mn  Mn4  1  0.102070  0.782438  0.527981  1
  Mn  Mn5  1  0.897930  0.217562  0.472019  1
  Mn  Mn6  1  0.583514  0.565493  0.806979  1
  Mn  Mn7  1  0.755345  0.142936  0.875589  1
  B  B8  1  0.718543  0.797668  0.029292  1
  B  B9  1  0.956812  0.565375  0.305025  1
  B  B10  1  0.632178  0.915060  0.645020  1
  B  B11  1  0.367822  0.084940  0.354980  1
  B  B12  1  0.043188  0.434625  0.694975  1
  B  B13  1  0.281457  0.202332  0.970708  1
  O  O14  1  0.944342  0.747087  0.026025  1
  O  O15  1  0.593908  0.806815  0.123933  1
  O  O16  1  0.405547  0.184644  0.063966  1
  O  O17  1  0.116974  0.574870  0.218110  1
  O  O18  1  0.725776  0.601801  0.303131  1
  O  O19  1  0.063429  0.533164  0.403080  1
  O  O20  1  0.779382  0.925662  0.553658  1
  O  O21  1  0.235257  0.087004  0.262560  1
  O  O22  1  0.375163  0.918183  0.643811  1
  O  O23  1  0.624837  0.081817  0.356189  1
  O  O24  1  0.764743  0.912996  0.737440  1
  O  O25  1  0.220618  0.074338  0.446342  1
  O  O26  1  0.936571  0.466836  0.596920  1
  O  O27  1  0.274224  0.398199  0.696869  1
  O  O28  1  0.883026  0.425130  0.781890  1
  O  O29  1  0.594453  0.815356  0.936034  1
  O  O30  1  0.406092  0.193185  0.876067  1
  O  O31  1  0.055658  0.252913  0.973975  1
