# generated using pymatgen
data_Li5V3(NiO5)2
_symmetry_space_group_name_H-M   'P 1'
_cell_length_a   5.06970513
_cell_length_b   5.20218565
_cell_length_c   7.92562305
_cell_angle_alpha   106.96862637
_cell_angle_beta   102.66511900
_cell_angle_gamma   100.61921899
_symmetry_Int_Tables_number   1
_chemical_formula_structural   Li5V3(NiO5)2
_chemical_formula_sum   'Li5 V3 Ni2 O10'
_cell_volume   188.03235221
_cell_formula_units_Z   1
loop_
 _symmetry_equiv_pos_site_id
 _symmetry_equiv_pos_as_xyz
  1  'x, y, z'
loop_
 _atom_site_type_symbol
 _atom_site_label
 _atom_site_symmetry_multiplicity
 _atom_site_fract_x
 _atom_site_fract_y
 _atom_site_fract_z
 _atom_site_occupancy
  Li  Li0  1  0.764385  0.506631  0.423970  1
  Li  Li1  1  0.611112  0.516149  0.769695  1
  Li  Li2  1  0.000000  0.000000  0.500000  1
  Li  Li3  1  0.388888  0.483851  0.230305  1
  Li  Li4  1  0.235615  0.493369  0.576030  1
  V  V5  1  0.000000  0.500000  0.000000  1
  V  V6  1  0.798631  0.012587  0.881594  1
  V  V7  1  0.201369  0.987413  0.118406  1
  Ni  Ni8  1  0.403669  0.995737  0.682959  1
  Ni  Ni9  1  0.596331  0.004263  0.317041  1
  O  O10  1  0.175469  0.237039  0.872681  1
  O  O11  1  0.392616  0.777312  0.956874  1
  O  O12  1  0.593902  0.757280  0.550459  1
  O  O13  1  0.019185  0.242713  0.224044  1
  O  O14  1  0.804704  0.235134  0.672900  1
  O  O15  1  0.195296  0.764866  0.327100  1
  O  O16  1  0.980815  0.757287  0.775956  1
  O  O17  1  0.406098  0.242720  0.449541  1
  O  O18  1  0.607384  0.222688  0.043126  1
  O  O19  1  0.824531  0.762961  0.127319  1
