# generated using pymatgen
data_LiVF4
_symmetry_space_group_name_H-M   'P 1'
_cell_length_a   6.71416964
_cell_length_b   6.71416964
_cell_length_c   6.58787680
_cell_angle_alpha   73.17789637
_cell_angle_beta   106.82210363
_cell_angle_gamma   145.36305376
_symmetry_Int_Tables_number   1
_chemical_formula_structural   LiVF4
_chemical_formula_sum   'Li2 V2 F8'
_cell_volume   160.85416407
_cell_formula_units_Z   2
loop_
 _symmetry_equiv_pos_site_id
 _symmetry_equiv_pos_as_xyz
  1  'x, y, z'
loop_
 _atom_site_type_symbol
 _atom_site_label
 _atom_site_symmetry_multiplicity
 _atom_site_fract_x
 _atom_site_fract_y
 _atom_site_fract_z
 _atom_site_occupancy
  Li  Li0  1  0.198102  0.801898  0.801947  1
  Li  Li1  1  0.801898  0.198102  0.198053  1
  V  V2  1  0.110232  0.889768  0.206336  1
  V  V3  1  0.889768  0.110232  0.793664  1
  F  F4  1  0.056061  0.943939  0.875261  1
  F  F5  1  0.139161  0.860839  0.501695  1
  F  F6  1  0.749065  0.250935  0.843651  1
  F  F7  1  0.623825  0.376175  0.200372  1
  F  F8  1  0.376175  0.623825  0.799628  1
  F  F9  1  0.250935  0.749065  0.156349  1
  F  F10  1  0.860839  0.139161  0.498305  1
  F  F11  1  0.943939  0.056061  0.124739  1
