# generated using pymatgen
data_Li2Mn3(BO3)3
_symmetry_space_group_name_H-M   'P 1'
_cell_length_a   6.30569614
_cell_length_b   8.26725360
_cell_length_c   8.68465511
_cell_angle_alpha   116.70819854
_cell_angle_beta   110.15367016
_cell_angle_gamma   91.97088739
_symmetry_Int_Tables_number   1
_chemical_formula_structural   Li2Mn3(BO3)3
_chemical_formula_sum   'Li4 Mn6 B6 O18'
_cell_volume   369.87780813
_cell_formula_units_Z   2
loop_
 _symmetry_equiv_pos_site_id
 _symmetry_equiv_pos_as_xyz
  1  'x, y, z'
loop_
 _atom_site_type_symbol
 _atom_site_label
 _atom_site_symmetry_multiplicity
 _atom_site_fract_x
 _atom_site_fract_y
 _atom_site_fract_z
 _atom_site_occupancy
  Li  Li0  1  0.369302  0.303227  0.280223  1
  Li  Li1  1  0.603841  0.981860  0.691360  1
  Li  Li2  1  0.078640  0.980052  0.691472  1
  Li  Li3  1  0.780956  0.720076  0.022423  1
  Mn  Mn4  1  0.189690  0.011551  0.371067  1
  Mn  Mn5  1  0.669023  0.011578  0.330065  1
  Mn  Mn6  1  0.015852  0.381869  0.994050  1
  Mn  Mn7  1  0.521046  0.346627  0.006830  1
  Mn  Mn8  1  0.806158  0.607736  0.628030  1
  Mn  Mn9  1  0.326572  0.651321  0.686723  1
  B  B10  1  0.488839  0.993815  0.986889  1
  B  B11  1  0.990625  0.001650  0.989267  1
  B  B12  1  0.067998  0.327581  0.666988  1
  B  B13  1  0.592785  0.333658  0.667906  1
  B  B14  1  0.430568  0.670576  0.341633  1
  B  B15  1  0.924231  0.670878  0.343273  1
  O  O16  1  0.134782  0.259172  0.795160  1
  O  O17  1  0.658650  0.261161  0.789049  1
  O  O18  1  0.004231  0.211916  0.480461  1
  O  O19  1  0.496402  0.223679  0.475480  1
  O  O20  1  0.536859  0.176899  0.122762  1
  O  O21  1  0.051407  0.194402  0.081528  1
  O  O22  1  0.071864  0.517777  0.742912  1
  O  O23  1  0.632344  0.529149  0.748216  1
  O  O24  1  0.487833  0.598952  0.467419  1
  O  O25  1  0.969317  0.605872  0.471006  1
  O  O26  1  0.347950  0.539912  0.152758  1
  O  O27  1  0.860597  0.549108  0.150386  1
  O  O28  1  0.388810  0.939108  0.794387  1
  O  O29  1  0.884102  0.900374  0.791853  1
  O  O30  1  0.456348  0.858816  0.408756  1
  O  O31  1  0.939657  0.857105  0.403222  1
  O  O32  1  0.537512  0.857240  0.036114  1
  O  O33  1  0.035235  0.908924  0.090381  1
