# generated using pymatgen
data_Li4Mn3Co2Ni3O16
_symmetry_space_group_name_H-M   'P 1'
_cell_length_a   5.80665297
_cell_length_b   5.80665297
_cell_length_c   9.29181213
_cell_angle_alpha   88.62870294
_cell_angle_beta   91.37129706
_cell_angle_gamma   120.55724725
_symmetry_Int_Tables_number   1
_chemical_formula_structural   Li4Mn3Co2Ni3O16
_chemical_formula_sum   'Li4 Mn3 Co2 Ni3 O16'
_cell_volume   269.68183882
_cell_formula_units_Z   1
loop_
 _symmetry_equiv_pos_site_id
 _symmetry_equiv_pos_as_xyz
  1  'x, y, z'
loop_
 _atom_site_type_symbol
 _atom_site_label
 _atom_site_symmetry_multiplicity
 _atom_site_fract_x
 _atom_site_fract_y
 _atom_site_fract_z
 _atom_site_occupancy
  Li  Li0  1  0.666414  0.333586  0.896426  1
  Li  Li1  1  0.995477  0.004523  0.992114  1
  Li  Li2  1  0.998171  0.001829  0.496662  1
  Li  Li3  1  0.332841  0.667159  0.398141  1
  Mn  Mn4  1  0.340747  0.168328  0.213214  1
  Mn  Mn5  1  0.831672  0.659253  0.213214  1
  Mn  Mn6  1  0.171940  0.828060  0.713935  1
  Co  Co7  1  0.670253  0.329747  0.487439  1
  Co  Co8  1  0.338688  0.661312  0.982950  1
  Ni  Ni9  1  0.830219  0.169781  0.211990  1
  Ni  Ni10  1  0.169917  0.339948  0.711194  1
  Ni  Ni11  1  0.660052  0.830083  0.711194  1
  O  O12  1  0.339692  0.160224  0.597688  1
  O  O13  1  0.520064  0.479936  0.337878  1
  O  O14  1  0.659609  0.340391  0.105649  1
  O  O15  1  0.005675  0.994325  0.306542  1
  O  O16  1  0.002438  0.997562  0.800907  1
  O  O17  1  0.839776  0.660308  0.597688  1
  O  O18  1  0.510571  0.041296  0.346978  1
  O  O19  1  0.958704  0.489429  0.346978  1
  O  O20  1  0.164031  0.835969  0.102196  1
  O  O21  1  0.831580  0.168420  0.595248  1
  O  O22  1  0.041812  0.529691  0.847814  1
  O  O23  1  0.470309  0.958188  0.847814  1
  O  O24  1  0.330206  0.669794  0.608384  1
  O  O25  1  0.177628  0.336260  0.095525  1
  O  O26  1  0.477843  0.522157  0.846678  1
  O  O27  1  0.663740  0.822372  0.095525  1
