# generated using pymatgen
data_Dy(Bi3O5)4
_symmetry_space_group_name_H-M   'P 1'
_cell_length_a   8.95875338
_cell_length_b   8.95875338
_cell_length_c   8.95875338
_cell_angle_alpha   109.47122063
_cell_angle_beta   109.47122063
_cell_angle_gamma   109.47122063
_symmetry_Int_Tables_number   1
_chemical_formula_structural   Dy(Bi3O5)4
_chemical_formula_sum   'Dy1 Bi12 O20'
_cell_volume   553.50411443
_cell_formula_units_Z   1
loop_
 _symmetry_equiv_pos_site_id
 _symmetry_equiv_pos_as_xyz
  1  'x, y, z'
loop_
 _atom_site_type_symbol
 _atom_site_label
 _atom_site_symmetry_multiplicity
 _atom_site_fract_x
 _atom_site_fract_y
 _atom_site_fract_z
 _atom_site_occupancy
  Dy  Dy0  1  0.000000  0.000000  0.000000  1
  Bi  Bi1  1  0.830584  0.323056  0.143146  1
  Bi  Bi2  1  0.492472  0.169416  0.312562  1
  Bi  Bi3  1  0.856854  0.179910  0.687438  1
  Bi  Bi4  1  0.312562  0.492472  0.169416  1
  Bi  Bi5  1  0.687438  0.856854  0.179910  1
  Bi  Bi6  1  0.820090  0.676944  0.507528  1
  Bi  Bi7  1  0.169416  0.312562  0.492472  1
  Bi  Bi8  1  0.676944  0.507528  0.820090  1
  Bi  Bi9  1  0.323056  0.143146  0.830584  1
  Bi  Bi10  1  0.507528  0.820090  0.676944  1
  Bi  Bi11  1  0.143146  0.830584  0.323056  1
  Bi  Bi12  1  0.179910  0.687438  0.856854  1
  O  O13  1  0.339139  1.000000  0.000000  1
  O  O14  1  0.733839  0.111407  0.358190  1
  O  O15  1  0.888593  0.622433  0.246784  1
  O  O16  1  0.624351  0.377567  0.266161  1
  O  O17  1  0.245940  0.245940  0.245940  1
  O  O18  1  0.754060  1.000000  0.000000  1
  O  O19  1  0.753216  0.375649  0.641810  1
  O  O20  1  1.000000  0.339139  1.000000  1
  O  O21  1  0.377567  0.266161  0.624351  1
  O  O22  1  0.622433  0.246784  0.888593  1
  O  O23  1  0.358190  0.733839  0.111407  1
  O  O24  1  0.641810  0.753216  0.375649  1
  O  O25  1  0.660861  0.660861  0.660861  1
  O  O26  1  0.266161  0.624351  0.377567  1
  O  O27  1  1.000000  1.000000  0.754060  1
  O  O28  1  1.000000  0.754060  0.000000  1
  O  O29  1  0.111407  0.358190  0.733839  1
  O  O30  1  0.375649  0.641810  0.753216  1
  O  O31  1  0.246784  0.888593  0.622433  1
  O  O32  1  1.000000  1.000000  0.339139  1
