# generated using pymatgen
data_Mn3(OF2)2
_symmetry_space_group_name_H-M   'P 1'
_cell_length_a   4.75342513
_cell_length_b   5.82591463
_cell_length_c   7.94128762
_cell_angle_alpha   87.17885000
_cell_angle_beta   88.41677372
_cell_angle_gamma   87.51284654
_symmetry_Int_Tables_number   1
_chemical_formula_structural   Mn3(OF2)2
_chemical_formula_sum   'Mn6 O4 F8'
_cell_volume   219.37338864
_cell_formula_units_Z   2
loop_
 _symmetry_equiv_pos_site_id
 _symmetry_equiv_pos_as_xyz
  1  'x, y, z'
loop_
 _atom_site_type_symbol
 _atom_site_label
 _atom_site_symmetry_multiplicity
 _atom_site_fract_x
 _atom_site_fract_y
 _atom_site_fract_z
 _atom_site_occupancy
  Mn  Mn0  1  0.527021  0.510747  0.003595  1
  Mn  Mn1  1  0.502867  0.830322  0.661170  1
  Mn  Mn2  1  0.466023  0.185641  0.348108  1
  Mn  Mn3  1  0.001916  0.337646  0.673609  1
  Mn  Mn4  1  0.003160  0.651024  0.310552  1
  Mn  Mn5  1  0.986002  0.989313  0.005698  1
  O  O6  1  0.814793  0.696761  0.099839  1
  O  O7  1  0.700729  0.539965  0.768719  1
  O  O8  1  0.298313  0.131036  0.571525  1
  O  O9  1  0.309687  0.472073  0.223696  1
  F  F10  1  0.805964  0.360922  0.441659  1
  F  F11  1  0.798694  0.044100  0.767763  1
  F  F12  1  0.688461  0.191233  0.121802  1
  F  F13  1  0.706977  0.861564  0.424531  1
  F  F14  1  0.300563  0.804473  0.890391  1
  F  F15  1  0.187645  0.630121  0.546756  1
  F  F16  1  0.203726  0.967203  0.234276  1
  F  F17  1  0.197460  0.295853  0.906313  1
