# generated using pymatgen
data_K5Ti3F14
_symmetry_space_group_name_H-M   'P 1'
_cell_length_a   7.93740077
_cell_length_b   7.93740077
_cell_length_c   11.81955260
_cell_angle_alpha   90.00000000
_cell_angle_beta   90.00000000
_cell_angle_gamma   90.00000000
_symmetry_Int_Tables_number   1
_chemical_formula_structural   K5Ti3F14
_chemical_formula_sum   'K10 Ti6 F28'
_cell_volume   744.65936498
_cell_formula_units_Z   2
loop_
 _symmetry_equiv_pos_site_id
 _symmetry_equiv_pos_as_xyz
  1  'x, y, z'
loop_
 _atom_site_type_symbol
 _atom_site_label
 _atom_site_symmetry_multiplicity
 _atom_site_fract_x
 _atom_site_fract_y
 _atom_site_fract_z
 _atom_site_occupancy
  K  K0  1  0.270201  0.770201  0.750000  1
  K  K1  1  0.229799  0.270201  0.750000  1
  K  K2  1  0.770201  0.729799  0.750000  1
  K  K3  1  0.729799  0.229799  0.750000  1
  K  K4  1  0.729799  0.229799  0.250000  1
  K  K5  1  0.770201  0.729799  0.250000  1
  K  K6  1  0.229799  0.270201  0.250000  1
  K  K7  1  0.270201  0.770201  0.250000  1
  K  K8  1  0.500000  0.500000  0.000000  1
  K  K9  1  0.000000  0.000000  0.500000  1
  Ti  Ti10  1  0.000000  0.500000  0.500000  1
  Ti  Ti11  1  0.500000  0.000000  0.500000  1
  Ti  Ti12  1  0.500000  0.000000  0.000000  1
  Ti  Ti13  1  0.000000  0.500000  0.000000  1
  Ti  Ti14  1  0.500000  0.500000  0.500000  1
  Ti  Ti15  1  0.000000  0.000000  0.000000  1
  F  F16  1  0.025762  0.679492  0.614087  1
  F  F17  1  0.974238  0.320508  0.614087  1
  F  F18  1  0.179492  0.525762  0.885913  1
  F  F19  1  0.679492  0.974238  0.614087  1
  F  F20  1  0.320508  0.025762  0.614087  1
  F  F21  1  0.474238  0.179492  0.885913  1
  F  F22  1  0.525762  0.820508  0.885913  1
  F  F23  1  0.820508  0.474238  0.885913  1
  F  F24  1  0.974238  0.320508  0.385913  1
  F  F25  1  0.025762  0.679492  0.385913  1
  F  F26  1  0.820508  0.474238  0.114087  1
  F  F27  1  0.320508  0.025762  0.385913  1
  F  F28  1  0.679492  0.974238  0.385913  1
  F  F29  1  0.525762  0.820508  0.114087  1
  F  F30  1  0.474238  0.179492  0.114087  1
  F  F31  1  0.179492  0.525762  0.114087  1
  F  F32  1  0.000000  0.000000  0.167937  1
  F  F33  1  0.500000  0.500000  0.332063  1
  F  F34  1  0.000000  0.000000  0.832063  1
  F  F35  1  0.500000  0.500000  0.667937  1
  F  F36  1  0.040271  0.249566  0.000000  1
  F  F37  1  0.750434  0.040271  0.000000  1
  F  F38  1  0.249566  0.959729  0.000000  1
  F  F39  1  0.540271  0.250434  0.500000  1
  F  F40  1  0.459729  0.749566  0.500000  1
  F  F41  1  0.959729  0.750434  0.000000  1
  F  F42  1  0.749566  0.540271  0.500000  1
  F  F43  1  0.250434  0.459729  0.500000  1
