# generated using pymatgen
data_Fe3Ni2P6WO24
_symmetry_space_group_name_H-M   'P 1'
_cell_length_a   8.53637916
_cell_length_b   8.53637916
_cell_length_c   8.53637916
_cell_angle_alpha   60.94008662
_cell_angle_beta   60.94008662
_cell_angle_gamma   60.94008662
_symmetry_Int_Tables_number   1
_chemical_formula_structural   Fe3Ni2P6WO24
_chemical_formula_sum   'Fe3 Ni2 P6 W1 O24'
_cell_volume   449.16928748
_cell_formula_units_Z   1
loop_
 _symmetry_equiv_pos_site_id
 _symmetry_equiv_pos_as_xyz
  1  'x, y, z'
loop_
 _atom_site_type_symbol
 _atom_site_label
 _atom_site_symmetry_multiplicity
 _atom_site_fract_x
 _atom_site_fract_y
 _atom_site_fract_z
 _atom_site_occupancy
  Fe  Fe0  1  0.643232  0.643232  0.643232  1
  Fe  Fe1  1  0.854966  0.854966  0.854966  1
  Fe  Fe2  1  0.356390  0.356390  0.356390  1
  Ni  Ni3  1  0.994552  0.994552  0.994552  1
  Ni  Ni4  1  0.498987  0.498987  0.498987  1
  P  P5  1  0.952752  0.253753  0.549656  1
  P  P6  1  0.549656  0.952752  0.253753  1
  P  P7  1  0.253753  0.549656  0.952752  1
  P  P8  1  0.744462  0.460689  0.045708  1
  P  P9  1  0.460689  0.045708  0.744462  1
  P  P10  1  0.045708  0.744462  0.460689  1
  W  W11  1  0.142368  0.142368  0.142368  1
  O  O12  1  0.501942  0.109304  0.321779  1
  O  O13  1  0.321779  0.501942  0.109304  1
  O  O14  1  0.109304  0.321779  0.501942  1
  O  O15  1  0.940474  0.090870  0.742497  1
  O  O16  1  0.000049  0.179525  0.389461  1
  O  O17  1  0.756977  0.409949  0.553277  1
  O  O18  1  0.742497  0.940474  0.090870  1
  O  O19  1  0.553277  0.756977  0.409949  1
  O  O20  1  0.820469  0.610021  0.003387  1
  O  O21  1  0.409949  0.553277  0.756977  1
  O  O22  1  0.908757  0.256833  0.064703  1
  O  O23  1  0.610021  0.003387  0.820469  1
  O  O24  1  0.389461  0.000049  0.179525  1
  O  O25  1  0.090870  0.742497  0.940474  1
  O  O26  1  0.590468  0.440797  0.243911  1
  O  O27  1  0.179525  0.389461  0.000049  1
  O  O28  1  0.440797  0.243911  0.590468  1
  O  O29  1  0.256833  0.064703  0.908757  1
  O  O30  1  0.243911  0.590468  0.440797  1
  O  O31  1  0.003387  0.820469  0.610021  1
  O  O32  1  0.064703  0.908757  0.256833  1
  O  O33  1  0.887201  0.687284  0.492538  1
  O  O34  1  0.687284  0.492538  0.887201  1
  O  O35  1  0.492538  0.887201  0.687284  1
