# generated using pymatgen
data_Ti2Co3Te3O16
_symmetry_space_group_name_H-M   'P 1'
_cell_length_a   6.17369202
_cell_length_b   6.17369202
_cell_length_c   9.30657224
_cell_angle_alpha   88.43887199
_cell_angle_beta   91.56112801
_cell_angle_gamma   121.04007521
_symmetry_Int_Tables_number   1
_chemical_formula_structural   Ti2Co3Te3O16
_chemical_formula_sum   'Ti2 Co3 Te3 O16'
_cell_volume   303.77345853
_cell_formula_units_Z   1
loop_
 _symmetry_equiv_pos_site_id
 _symmetry_equiv_pos_as_xyz
  1  'x, y, z'
loop_
 _atom_site_type_symbol
 _atom_site_label
 _atom_site_symmetry_multiplicity
 _atom_site_fract_x
 _atom_site_fract_y
 _atom_site_fract_z
 _atom_site_occupancy
  Ti  Ti0  1  0.678620  0.321380  0.512294  1
  Ti  Ti1  1  0.359486  0.640514  0.961805  1
  Co  Co2  1  0.826524  0.173476  0.208987  1
  Co  Co3  1  0.169691  0.329967  0.700964  1
  Co  Co4  1  0.670033  0.830309  0.700964  1
  Te  Te5  1  0.328818  0.173435  0.214912  1
  Te  Te6  1  0.826565  0.671182  0.214912  1
  Te  Te7  1  0.171677  0.828323  0.714939  1
  O  O8  1  0.351679  0.154063  0.598766  1
  O  O9  1  0.513543  0.486457  0.337168  1
  O  O10  1  0.646436  0.353564  0.095863  1
  O  O11  1  0.004142  0.995858  0.324783  1
  O  O12  1  0.013310  0.986690  0.803406  1
  O  O13  1  0.845937  0.648321  0.598766  1
  O  O14  1  0.504734  0.053241  0.332886  1
  O  O15  1  0.946759  0.495266  0.332886  1
  O  O16  1  0.152024  0.847976  0.106302  1
  O  O17  1  0.827981  0.172019  0.590202  1
  O  O18  1  0.049012  0.532934  0.849528  1
  O  O19  1  0.467066  0.950988  0.849528  1
  O  O20  1  0.321361  0.678639  0.604749  1
  O  O21  1  0.173354  0.330555  0.107811  1
  O  O22  1  0.482132  0.517868  0.845515  1
  O  O23  1  0.669445  0.826646  0.107811  1
