# generated using pymatgen
data_BaCaGaF7
_symmetry_space_group_name_H-M   'P 1'
_cell_length_a   5.49427904
_cell_length_b   5.52406944
_cell_length_c   19.88975064
_cell_angle_alpha   90.00000000
_cell_angle_beta   103.64167936
_cell_angle_gamma   90.00000000
_symmetry_Int_Tables_number   1
_chemical_formula_structural   BaCaGaF7
_chemical_formula_sum   'Ba4 Ca4 Ga4 F28'
_cell_volume   586.63972422
_cell_formula_units_Z   4
loop_
 _symmetry_equiv_pos_site_id
 _symmetry_equiv_pos_as_xyz
  1  'x, y, z'
loop_
 _atom_site_type_symbol
 _atom_site_label
 _atom_site_symmetry_multiplicity
 _atom_site_fract_x
 _atom_site_fract_y
 _atom_site_fract_z
 _atom_site_occupancy
  Ba  Ba0  1  0.682748  0.243304  0.931510  1
  Ba  Ba1  1  0.317252  0.756696  0.068490  1
  Ba  Ba2  1  0.682748  0.756696  0.431510  1
  Ba  Ba3  1  0.317252  0.243304  0.568490  1
  Ca  Ca4  1  0.500000  0.324551  0.250000  1
  Ca  Ca5  1  0.500000  0.675449  0.750000  1
  Ca  Ca6  1  0.000000  0.791072  0.250000  1
  Ca  Ca7  1  0.000000  0.208928  0.750000  1
  Ga  Ga8  1  0.821902  0.225225  0.119348  1
  Ga  Ga9  1  0.821902  0.774775  0.619348  1
  Ga  Ga10  1  0.178098  0.225225  0.380652  1
  Ga  Ga11  1  0.178098  0.774775  0.880652  1
  F  F12  1  0.155877  0.055062  0.936362  1
  F  F13  1  0.844123  0.055062  0.563638  1
  F  F14  1  0.844123  0.944938  0.063638  1
  F  F15  1  0.155877  0.944938  0.436362  1
  F  F16  1  0.652911  0.023954  0.176837  1
  F  F17  1  0.347089  0.023954  0.323163  1
  F  F18  1  0.347089  0.976046  0.823163  1
  F  F19  1  0.652911  0.976046  0.676837  1
  F  F20  1  0.499534  0.283977  0.057552  1
  F  F21  1  0.500466  0.283977  0.442448  1
  F  F22  1  0.500466  0.716023  0.942448  1
  F  F23  1  0.499534  0.716023  0.557552  1
  F  F24  1  0.971852  0.591096  0.561377  1
  F  F25  1  0.028148  0.591096  0.938623  1
  F  F26  1  0.028148  0.408904  0.438623  1
  F  F27  1  0.971852  0.408904  0.061377  1
  F  F28  1  0.124795  0.870297  0.684055  1
  F  F29  1  0.875205  0.870297  0.815945  1
  F  F30  1  0.875205  0.129703  0.315945  1
  F  F31  1  0.124795  0.129703  0.184055  1
  F  F32  1  0.246341  0.490616  0.324717  1
  F  F33  1  0.753659  0.490616  0.175283  1
  F  F34  1  0.753659  0.509384  0.675283  1
  F  F35  1  0.246341  0.509384  0.824717  1
  F  F36  1  0.267418  0.370828  0.691696  1
  F  F37  1  0.732582  0.370828  0.808304  1
  F  F38  1  0.732582  0.629172  0.308304  1
  F  F39  1  0.267418  0.629172  0.191696  1
