# generated using pymatgen
data_Li4V3Fe2Sb3O16
_symmetry_space_group_name_H-M   'P 1'
_cell_length_a   6.15848478
_cell_length_b   6.15848478
_cell_length_c   9.93696145
_cell_angle_alpha   89.74642731
_cell_angle_beta   90.25357269
_cell_angle_gamma   119.96743750
_symmetry_Int_Tables_number   1
_chemical_formula_structural   Li4V3Fe2Sb3O16
_chemical_formula_sum   'Li4 V3 Fe2 Sb3 O16'
_cell_volume   326.48912185
_cell_formula_units_Z   1
loop_
 _symmetry_equiv_pos_site_id
 _symmetry_equiv_pos_as_xyz
  1  'x, y, z'
loop_
 _atom_site_type_symbol
 _atom_site_label
 _atom_site_symmetry_multiplicity
 _atom_site_fract_x
 _atom_site_fract_y
 _atom_site_fract_z
 _atom_site_occupancy
  Li  Li0  1  0.664496  0.335504  0.125714  1
  Li  Li1  1  0.991612  0.008388  0.009482  1
  Li  Li2  1  0.994551  0.005449  0.494007  1
  Li  Li3  1  0.327959  0.672041  0.599302  1
  V  V4  1  0.832408  0.167592  0.782994  1
  V  V5  1  0.663525  0.829310  0.285786  1
  V  V6  1  0.170690  0.336475  0.285786  1
  Fe  Fe7  1  0.673567  0.326433  0.485822  1
  Fe  Fe8  1  0.344387  0.655613  0.022593  1
  Sb  Sb9  1  0.831578  0.662192  0.783910  1
  Sb  Sb10  1  0.337808  0.168422  0.783910  1
  Sb  Sb11  1  0.170923  0.829077  0.284981  1
  O  O12  1  0.849592  0.684398  0.398844  1
  O  O13  1  0.512525  0.487475  0.670240  1
  O  O14  1  0.663308  0.336692  0.896695  1
  O  O15  1  0.003844  0.996156  0.679434  1
  O  O16  1  0.005901  0.994099  0.186618  1
  O  O17  1  0.315602  0.150408  0.398844  1
  O  O18  1  0.965759  0.487343  0.674523  1
  O  O19  1  0.512657  0.034241  0.674523  1
  O  O20  1  0.155778  0.844222  0.896270  1
  O  O21  1  0.845435  0.154565  0.390362  1
  O  O22  1  0.479377  0.966751  0.167206  1
  O  O23  1  0.033249  0.520623  0.167206  1
  O  O24  1  0.328600  0.671400  0.398557  1
  O  O25  1  0.693428  0.840656  0.890019  1
  O  O26  1  0.482118  0.517882  0.168634  1
  O  O27  1  0.159344  0.306572  0.890019  1
