# generated using pymatgen
data_Li3Ti2VO6
_symmetry_space_group_name_H-M   'P 1'
_cell_length_a   6.73245932
_cell_length_b   6.73245932
_cell_length_c   6.00934226
_cell_angle_alpha   74.46950129
_cell_angle_beta   105.53049871
_cell_angle_gamma   154.67080181
_symmetry_Int_Tables_number   1
_chemical_formula_structural   Li3Ti2VO6
_chemical_formula_sum   'Li3 Ti2 V1 O6'
_cell_volume   112.05517312
_cell_formula_units_Z   1
loop_
 _symmetry_equiv_pos_site_id
 _symmetry_equiv_pos_as_xyz
  1  'x, y, z'
loop_
 _atom_site_type_symbol
 _atom_site_label
 _atom_site_symmetry_multiplicity
 _atom_site_fract_x
 _atom_site_fract_y
 _atom_site_fract_z
 _atom_site_occupancy
  Li  Li0  1  0.000000  0.000000  0.000000  1
  Li  Li1  1  0.333596  0.666404  0.672433  1
  Li  Li2  1  0.666404  0.333596  0.327567  1
  Ti  Ti3  1  0.340813  0.659187  0.182001  1
  Ti  Ti4  1  0.659187  0.340813  0.817999  1
  V  V5  1  0.000000  1.000000  0.500000  1
  O  O6  1  0.832054  0.167946  0.408418  1
  O  O7  1  0.173348  0.826652  0.062357  1
  O  O8  1  0.167946  0.832054  0.591582  1
  O  O9  1  0.501739  0.498261  0.747334  1
  O  O10  1  0.498261  0.501739  0.252666  1
  O  O11  1  0.826652  0.173348  0.937643  1
