# generated using pymatgen
data_Li5Mn6(BO3)6
_symmetry_space_group_name_H-M   'P 1'
_cell_length_a   8.79945325
_cell_length_b   8.85557496
_cell_length_c   10.48286051
_cell_angle_alpha   98.92468123
_cell_angle_beta   98.55014222
_cell_angle_gamma   107.65539331
_symmetry_Int_Tables_number   1
_chemical_formula_structural   Li5Mn6(BO3)6
_chemical_formula_sum   'Li10 Mn12 B12 O36'
_cell_volume   752.16367733
_cell_formula_units_Z   2
loop_
 _symmetry_equiv_pos_site_id
 _symmetry_equiv_pos_as_xyz
  1  'x, y, z'
loop_
 _atom_site_type_symbol
 _atom_site_label
 _atom_site_symmetry_multiplicity
 _atom_site_fract_x
 _atom_site_fract_y
 _atom_site_fract_z
 _atom_site_occupancy
  Li  Li0  1  0.096672  0.793015  0.814699  1
  Li  Li1  1  0.814048  0.102274  0.800928  1
  Li  Li2  1  0.223618  0.234572  0.517527  1
  Li  Li3  1  0.847142  0.544013  0.553594  1
  Li  Li4  1  0.563710  0.850133  0.548552  1
  Li  Li5  1  0.593150  0.291768  0.307440  1
  Li  Li6  1  0.969374  0.983852  0.266630  1
  Li  Li7  1  0.333068  0.036192  0.057143  1
  Li  Li8  1  0.062234  0.336527  0.038804  1
  Li  Li9  1  0.723461  0.748774  0.026200  1
  Mn  Mn10  1  0.200424  0.185714  0.809604  1
  Mn  Mn11  1  0.813045  0.489543  0.839706  1
  Mn  Mn12  1  0.480998  0.838177  0.837264  1
  Mn  Mn13  1  0.581499  0.231157  0.595201  1
  Mn  Mn14  1  0.237884  0.590324  0.582045  1
  Mn  Mn15  1  0.935649  0.929007  0.567960  1
  Mn  Mn16  1  0.336891  0.965704  0.345306  1
  Mn  Mn17  1  0.992557  0.348461  0.333000  1
  Mn  Mn18  1  0.683180  0.683557  0.317110  1
  Mn  Mn19  1  0.081727  0.707252  0.103809  1
  Mn  Mn20  1  0.724396  0.102909  0.089196  1
  Mn  Mn21  1  0.428766  0.430046  0.073122  1
  B  B22  1  0.000062  0.995788  0.999514  1
  B  B23  1  0.536412  0.205412  0.871613  1
  B  B24  1  0.194841  0.538183  0.876858  1
  B  B25  1  0.760061  0.763516  0.751324  1
  B  B26  1  0.964099  0.298520  0.633126  1
  B  B27  1  0.294023  0.959475  0.629776  1
  B  B28  1  0.509229  0.500571  0.498149  1
  B  B29  1  0.039506  0.703061  0.373066  1
  B  B30  1  0.712840  0.048465  0.375369  1
  B  B31  1  0.247851  0.234460  0.247311  1
  B  B32  1  0.793149  0.462399  0.126850  1
  B  B33  1  0.448555  0.790590  0.116048  1
  O  O34  1  0.016667  0.114055  0.923404  1
  O  O35  1  0.399981  0.189945  0.933322  1
  O  O36  1  0.073547  0.541959  0.949865  1
  O  O37  1  0.098837  0.898529  0.997763  1
  O  O38  1  0.261921  0.416352  0.890876  1
  O  O39  1  0.627065  0.104113  0.888153  1
  O  O40  1  0.572721  0.320095  0.796614  1
  O  O41  1  0.240875  0.649513  0.800975  1
  O  O42  1  0.658494  0.730684  0.838880  1
  O  O43  1  0.059952  0.195269  0.644810  1
  O  O44  1  0.841479  0.285930  0.702860  1
  O  O45  1  0.178291  0.964569  0.709885  1
  O  O46  1  0.864078  0.672797  0.732693  1
  O  O47  1  0.320049  0.064131  0.544255  1
  O  O48  1  0.377400  0.851016  0.638870  1
  O  O49  1  0.763177  0.888377  0.683893  1
  O  O50  1  0.378977  0.447494  0.557456  1
  O  O51  1  0.996203  0.404498  0.549882  1
  O  O52  1  0.588133  0.029502  0.445594  1
  O  O53  1  0.615571  0.409823  0.486862  1
  O  O54  1  0.538954  0.640925  0.450057  1
  O  O55  1  0.127235  0.601432  0.385147  1
  O  O56  1  0.133557  0.197232  0.327425  1
  O  O57  1  0.920318  0.707083  0.444866  1
  O  O58  1  0.743929  0.165397  0.299614  1
  O  O59  1  0.068993  0.810065  0.283604  1
  O  O60  1  0.361131  0.152592  0.242878  1
  O  O61  1  0.806469  0.947511  0.380828  1
  O  O62  1  0.245805  0.346150  0.170368  1
  O  O63  1  0.661506  0.446346  0.187364  1
  O  O64  1  0.315169  0.774772  0.176511  1
  O  O65  1  0.541581  0.690814  0.128667  1
  O  O66  1  0.881733  0.358013  0.129856  1
  O  O67  1  0.839370  0.592119  0.060393  1
  O  O68  1  0.488601  0.911103  0.045540  1
  O  O69  1  0.884877  0.973202  0.079333  1
