# generated using pymatgen
data_YNiGe3
_symmetry_space_group_name_H-M   'P 1'
_cell_length_a   11.04454711
_cell_length_b   11.04454711
_cell_length_c   4.09576524
_cell_angle_alpha   90.00000000
_cell_angle_beta   90.00000000
_cell_angle_gamma   158.54124247
_symmetry_Int_Tables_number   1
_chemical_formula_structural   YNiGe3
_chemical_formula_sum   'Y2 Ni2 Ge6'
_cell_volume   182.77292448
_cell_formula_units_Z   2
loop_
 _symmetry_equiv_pos_site_id
 _symmetry_equiv_pos_as_xyz
  1  'x, y, z'
loop_
 _atom_site_type_symbol
 _atom_site_label
 _atom_site_symmetry_multiplicity
 _atom_site_fract_x
 _atom_site_fract_y
 _atom_site_fract_z
 _atom_site_occupancy
  Y  Y0  1  0.169248  0.830752  0.500000  1
  Y  Y1  1  0.830752  0.169248  0.500000  1
  Ni  Ni2  1  0.389516  0.610484  1.000000  1
  Ni  Ni3  1  0.610484  0.389516  0.000000  1
  Ge  Ge4  1  0.942572  0.057428  0.000000  1
  Ge  Ge5  1  0.057428  0.942572  0.000000  1
  Ge  Ge6  1  0.716611  0.283389  0.000000  1
  Ge  Ge7  1  0.283389  0.716611  1.000000  1
  Ge  Ge8  1  0.557256  0.442744  0.500000  1
  Ge  Ge9  1  0.442744  0.557256  0.500000  1
