# generated using pymatgen
data_Mn12O7F17
_symmetry_space_group_name_H-M   'P 1'
_cell_length_a   5.39463384
_cell_length_b   5.43547269
_cell_length_c   15.09591198
_cell_angle_alpha   84.56486866
_cell_angle_beta   84.40747192
_cell_angle_gamma   88.40084663
_symmetry_Int_Tables_number   1
_chemical_formula_structural   Mn12O7F17
_chemical_formula_sum   'Mn12 O7 F17'
_cell_volume   438.48262311
_cell_formula_units_Z   1
loop_
 _symmetry_equiv_pos_site_id
 _symmetry_equiv_pos_as_xyz
  1  'x, y, z'
loop_
 _atom_site_type_symbol
 _atom_site_label
 _atom_site_symmetry_multiplicity
 _atom_site_fract_x
 _atom_site_fract_y
 _atom_site_fract_z
 _atom_site_occupancy
  Mn  Mn0  1  0.013070  0.093139  0.001034  1
  Mn  Mn1  1  0.537435  0.905436  0.162942  1
  Mn  Mn2  1  0.980629  0.103608  0.327584  1
  Mn  Mn3  1  0.523210  0.983708  0.508458  1
  Mn  Mn4  1  0.062037  0.021230  0.662772  1
  Mn  Mn5  1  0.568226  0.954604  0.827686  1
  Mn  Mn6  1  0.985978  0.590009  0.168327  1
  Mn  Mn7  1  0.485722  0.423427  0.996040  1
  Mn  Mn8  1  0.405899  0.488814  0.656973  1
  Mn  Mn9  1  0.036401  0.519451  0.510401  1
  Mn  Mn10  1  0.441707  0.457671  0.326099  1
  Mn  Mn11  1  0.038255  0.576490  0.838871  1
  O  O12  1  0.843753  0.845858  0.085355  1
  O  O13  1  0.221551  0.753699  0.598727  1
  O  O14  1  0.892427  0.820971  0.758494  1
  O  O15  1  0.670590  0.640822  0.234029  1
  O  O16  1  0.180610  0.357788  0.929037  1
  O  O17  1  0.287772  0.251289  0.585852  1
  O  O18  1  0.129789  0.373241  0.258233  1
  F  F19  1  0.210406  0.873869  0.244312  1
  F  F20  1  0.872470  0.826468  0.412725  1
  F  F21  1  0.203925  0.866275  0.917106  1
  F  F22  1  0.316206  0.620172  0.098624  1
  F  F23  1  0.705854  0.659066  0.580053  1
  F  F24  1  0.715633  0.652457  0.912857  1
  F  F25  1  0.376570  0.688174  0.766240  1
  F  F26  1  0.359787  0.702502  0.425467  1
  F  F27  1  0.821249  0.337975  0.074267  1
  F  F28  1  0.701823  0.289804  0.409228  1
  F  F29  1  0.575253  0.242322  0.730603  1
  F  F30  1  0.208236  0.216375  0.416006  1
  F  F31  1  0.341131  0.111639  0.078472  1
  F  F32  1  0.075979  0.306491  0.748915  1
  F  F33  1  0.819654  0.159579  0.571830  1
  F  F34  1  0.709130  0.155998  0.922208  1
  F  F35  1  0.681638  0.129579  0.254175  1
