# generated using pymatgen
data_Li3(NiO2)4
_symmetry_space_group_name_H-M   'P 1'
_cell_length_a   5.79939988
_cell_length_b   5.79939988
_cell_length_c   5.64527985
_cell_angle_alpha   61.40475191
_cell_angle_beta   118.59524809
_cell_angle_gamma   120.95375449
_symmetry_Int_Tables_number   1
_chemical_formula_structural   Li3(NiO2)4
_chemical_formula_sum   'Li3 Ni4 O8'
_cell_volume   135.98369241
_cell_formula_units_Z   1
loop_
 _symmetry_equiv_pos_site_id
 _symmetry_equiv_pos_as_xyz
  1  'x, y, z'
loop_
 _atom_site_type_symbol
 _atom_site_label
 _atom_site_symmetry_multiplicity
 _atom_site_fract_x
 _atom_site_fract_y
 _atom_site_fract_z
 _atom_site_occupancy
  Li  Li0  1  0.500000  0.000000  0.500000  1
  Li  Li1  1  0.500000  0.500000  0.000000  1
  Li  Li2  1  0.000000  0.500000  0.500000  1
  Ni  Ni3  1  1.000000  0.000000  0.500000  1
  Ni  Ni4  1  0.000000  0.000000  0.000000  1
  Ni  Ni5  1  0.500000  0.000000  0.000000  1
  Ni  Ni6  1  0.000000  0.500000  0.000000  1
  O  O7  1  0.222442  0.777558  0.209467  1
  O  O8  1  0.252048  0.747952  0.779375  1
  O  O9  1  0.777814  0.780719  0.244529  1
  O  O10  1  0.219281  0.222186  0.244529  1
  O  O11  1  0.780719  0.777814  0.755471  1
  O  O12  1  0.222186  0.219281  0.755471  1
  O  O13  1  0.747952  0.252048  0.220625  1
  O  O14  1  0.777558  0.222442  0.790533  1
