# generated using pymatgen
data_Te4Mo3
_symmetry_space_group_name_H-M   'P 1'
_cell_length_a   7.18115719
_cell_length_b   7.18115719
_cell_length_c   7.18115719
_cell_angle_alpha   92.11952707
_cell_angle_beta   92.11952707
_cell_angle_gamma   92.11952707
_symmetry_Int_Tables_number   1
_chemical_formula_structural   Te4Mo3
_chemical_formula_sum   'Te8 Mo6'
_cell_volume   369.54585670
_cell_formula_units_Z   2
loop_
 _symmetry_equiv_pos_site_id
 _symmetry_equiv_pos_as_xyz
  1  'x, y, z'
loop_
 _atom_site_type_symbol
 _atom_site_label
 _atom_site_symmetry_multiplicity
 _atom_site_fract_x
 _atom_site_fract_y
 _atom_site_fract_z
 _atom_site_occupancy
  Te  Te0  1  0.285543  0.285543  0.285543  1
  Te  Te1  1  0.714457  0.714457  0.714457  1
  Te  Te2  1  0.241431  0.618095  0.882030  1
  Te  Te3  1  0.618095  0.882030  0.241431  1
  Te  Te4  1  0.882030  0.241431  0.618095  1
  Te  Te5  1  0.758569  0.381905  0.117970  1
  Te  Te6  1  0.381905  0.117970  0.758569  1
  Te  Te7  1  0.117970  0.758569  0.381905  1
  Mo  Mo8  1  0.080951  0.253832  0.953239  1
  Mo  Mo9  1  0.253832  0.953239  0.080951  1
  Mo  Mo10  1  0.953239  0.080951  0.253832  1
  Mo  Mo11  1  0.919049  0.746168  0.046761  1
  Mo  Mo12  1  0.746168  0.046761  0.919049  1
  Mo  Mo13  1  0.046761  0.919049  0.746168  1
