# generated using pymatgen
data_Ho2Cr2C3
_symmetry_space_group_name_H-M   'P 1'
_cell_length_a   5.47934313
_cell_length_b   5.47934313
_cell_length_c   5.55061464
_cell_angle_alpha   74.81141738
_cell_angle_beta   105.18858262
_cell_angle_gamma   144.34110265
_symmetry_Int_Tables_number   1
_chemical_formula_structural   Ho2Cr2C3
_chemical_formula_sum   'Ho2 Cr2 C3'
_cell_volume   93.39680698
_cell_formula_units_Z   1
loop_
 _symmetry_equiv_pos_site_id
 _symmetry_equiv_pos_as_xyz
  1  'x, y, z'
loop_
 _atom_site_type_symbol
 _atom_site_label
 _atom_site_symmetry_multiplicity
 _atom_site_fract_x
 _atom_site_fract_y
 _atom_site_fract_z
 _atom_site_occupancy
  Ho  Ho0  1  0.606475  0.393525  0.816550  1
  Ho  Ho1  1  0.393525  0.606475  0.183450  1
  Cr  Cr2  1  0.843636  0.156364  0.610458  1
  Cr  Cr3  1  0.156364  0.843636  0.389542  1
  C  C4  1  0.283967  0.716033  0.731558  1
  C  C5  1  0.716033  0.283967  0.268442  1
  C  C6  1  0.000000  0.000000  0.500000  1
