# generated using pymatgen
data_Li4Co2OF7
_symmetry_space_group_name_H-M   'P 1'
_cell_length_a   5.96635681
_cell_length_b   5.96635681
_cell_length_c   5.99784464
_cell_angle_alpha   60.06660014
_cell_angle_beta   119.93339986
_cell_angle_gamma   121.04944027
_symmetry_Int_Tables_number   1
_chemical_formula_structural   Li4Co2OF7
_chemical_formula_sum   'Li4 Co2 O1 F7'
_cell_volume   149.88739419
_cell_formula_units_Z   1
loop_
 _symmetry_equiv_pos_site_id
 _symmetry_equiv_pos_as_xyz
  1  'x, y, z'
loop_
 _atom_site_type_symbol
 _atom_site_label
 _atom_site_symmetry_multiplicity
 _atom_site_fract_x
 _atom_site_fract_y
 _atom_site_fract_z
 _atom_site_occupancy
  Li  Li0  1  0.001700  0.998300  0.995550  1
  Li  Li1  1  0.240452  0.759548  0.750272  1
  Li  Li2  1  0.625148  0.374852  0.370255  1
  Li  Li3  1  0.628444  0.371556  0.883878  1
  Co  Co4  1  0.599132  0.849427  0.362125  1
  Co  Co5  1  0.150573  0.400868  0.362125  1
  O  O6  1  0.379044  0.620956  0.147602  1
  F  F7  1  0.381757  0.618243  0.636400  1
  F  F8  1  0.880022  0.599797  0.145016  1
  F  F9  1  0.869855  0.130145  0.131910  1
  F  F10  1  0.872362  0.127638  0.582924  1
  F  F11  1  0.400203  0.119978  0.145016  1
  F  F12  1  0.844070  0.622763  0.618463  1
  F  F13  1  0.377237  0.155930  0.618463  1
