# generated using pymatgen
data_Li5(FeO2)4
_symmetry_space_group_name_H-M   'P 1'
_cell_length_a   6.07466919
_cell_length_b   6.07466919
_cell_length_c   6.07466919
_cell_angle_alpha   59.88327156
_cell_angle_beta   59.88327156
_cell_angle_gamma   59.88327156
_symmetry_Int_Tables_number   1
_chemical_formula_structural   Li5(FeO2)4
_chemical_formula_sum   'Li5 Fe4 O8'
_cell_volume   158.08882108
_cell_formula_units_Z   1
loop_
 _symmetry_equiv_pos_site_id
 _symmetry_equiv_pos_as_xyz
  1  'x, y, z'
loop_
 _atom_site_type_symbol
 _atom_site_label
 _atom_site_symmetry_multiplicity
 _atom_site_fract_x
 _atom_site_fract_y
 _atom_site_fract_z
 _atom_site_occupancy
  Li  Li0  1  0.446616  0.034501  0.034501  1
  Li  Li1  1  0.034501  0.446616  0.034501  1
  Li  Li2  1  0.875306  0.875306  0.875306  1
  Li  Li3  1  0.034501  0.034501  0.446616  1
  Li  Li4  1  0.508582  0.508582  0.508582  1
  Fe  Fe5  1  0.022306  0.022306  0.022306  1
  Fe  Fe6  1  0.509665  0.509665  0.009379  1
  Fe  Fe7  1  0.009379  0.509665  0.509665  1
  Fe  Fe8  1  0.509665  0.009379  0.509665  1
  O  O9  1  0.751683  0.751683  0.751683  1
  O  O10  1  0.766278  0.269912  0.766278  1
  O  O11  1  0.269912  0.766278  0.766278  1
  O  O12  1  0.766278  0.766278  0.269912  1
  O  O13  1  0.262740  0.262740  0.740450  1
  O  O14  1  0.740450  0.262740  0.262740  1
  O  O15  1  0.262740  0.740450  0.262740  1
  O  O16  1  0.265706  0.265706  0.265706  1
