# generated using pymatgen
data_Er8Ga3Co
_symmetry_space_group_name_H-M   'P 1'
_cell_length_a   9.93844843
_cell_length_b   9.93844843
_cell_length_c   6.84422641
_cell_angle_alpha   90.00000000
_cell_angle_beta   90.00000000
_cell_angle_gamma   120.00000000
_symmetry_Int_Tables_number   1
_chemical_formula_structural   Er8Ga3Co
_chemical_formula_sum   'Er16 Ga6 Co2'
_cell_volume   585.45318926
_cell_formula_units_Z   2
loop_
 _symmetry_equiv_pos_site_id
 _symmetry_equiv_pos_as_xyz
  1  'x, y, z'
loop_
 _atom_site_type_symbol
 _atom_site_label
 _atom_site_symmetry_multiplicity
 _atom_site_fract_x
 _atom_site_fract_y
 _atom_site_fract_z
 _atom_site_occupancy
  Er  Er0  1  0.000000  0.000000  0.270108  1
  Er  Er1  1  0.000000  0.000000  0.770108  1
  Er  Er2  1  0.173074  0.826926  0.991930  1
  Er  Er3  1  0.826926  0.173074  0.491930  1
  Er  Er4  1  0.173074  0.346148  0.991930  1
  Er  Er5  1  0.653852  0.826926  0.991930  1
  Er  Er6  1  0.346148  0.173074  0.491930  1
  Er  Er7  1  0.826926  0.653852  0.491930  1
  Er  Er8  1  0.333333  0.666667  0.671803  1
  Er  Er9  1  0.666667  0.333333  0.171803  1
  Er  Er10  1  0.464610  0.535390  0.292586  1
  Er  Er11  1  0.535390  0.464610  0.792586  1
  Er  Er12  1  0.464610  0.929221  0.292586  1
  Er  Er13  1  0.070779  0.535390  0.292586  1
  Er  Er14  1  0.929221  0.464610  0.792586  1
  Er  Er15  1  0.535390  0.070779  0.792586  1
  Ga  Ga16  1  0.163575  0.836425  0.539421  1
  Ga  Ga17  1  0.836425  0.163575  0.039421  1
  Ga  Ga18  1  0.163575  0.327150  0.539421  1
  Ga  Ga19  1  0.672850  0.836425  0.539421  1
  Ga  Ga20  1  0.327150  0.163575  0.039421  1
  Ga  Ga21  1  0.836425  0.672850  0.039421  1
  Co  Co22  1  0.333333  0.666667  0.059337  1
  Co  Co23  1  0.666667  0.333333  0.559337  1
