# generated using pymatgen
data_Na3Mn5O12
_symmetry_space_group_name_H-M   'P 1'
_cell_length_a   5.05813967
_cell_length_b   8.64518727
_cell_length_c   5.85713284
_cell_angle_alpha   90.00000000
_cell_angle_beta   108.20653435
_cell_angle_gamma   90.00000000
_symmetry_Int_Tables_number   1
_chemical_formula_structural   Na3Mn5O12
_chemical_formula_sum   'Na3 Mn5 O12'
_cell_volume   243.30152867
_cell_formula_units_Z   1
loop_
 _symmetry_equiv_pos_site_id
 _symmetry_equiv_pos_as_xyz
  1  'x, y, z'
loop_
 _atom_site_type_symbol
 _atom_site_label
 _atom_site_symmetry_multiplicity
 _atom_site_fract_x
 _atom_site_fract_y
 _atom_site_fract_z
 _atom_site_occupancy
  Na  Na0  1  0.000000  0.193885  0.500000  1
  Na  Na1  1  0.000000  0.806115  0.500000  1
  Na  Na2  1  0.500000  0.000000  0.500000  1
  Mn  Mn3  1  0.000000  0.325293  0.000000  1
  Mn  Mn4  1  0.000000  0.674707  0.000000  1
  Mn  Mn5  1  0.500000  0.160848  0.000000  1
  Mn  Mn6  1  0.500000  0.839152  0.000000  1
  Mn  Mn7  1  0.500000  0.500000  0.000000  1
  O  O8  1  0.732593  0.332184  0.178500  1
  O  O9  1  0.701162  0.000000  0.201299  1
  O  O10  1  0.747979  0.182779  0.807959  1
  O  O11  1  0.732593  0.667816  0.178500  1
  O  O12  1  0.267407  0.332184  0.821500  1
  O  O13  1  0.747979  0.817221  0.807959  1
  O  O14  1  0.252021  0.182779  0.192041  1
  O  O15  1  0.769557  0.500000  0.828572  1
  O  O16  1  0.252021  0.817221  0.192041  1
  O  O17  1  0.298838  0.000000  0.798701  1
  O  O18  1  0.230443  0.500000  0.171428  1
  O  O19  1  0.267407  0.667816  0.821500  1
