# generated using pymatgen
data_Fe10O9F11
_symmetry_space_group_name_H-M   'P 1'
_cell_length_a   4.78004291
_cell_length_b   4.78004291
_cell_length_c   15.41704156
_cell_angle_alpha   90.00000000
_cell_angle_beta   90.00000000
_cell_angle_gamma   95.58043890
_symmetry_Int_Tables_number   1
_chemical_formula_structural   Fe10O9F11
_chemical_formula_sum   'Fe10 O9 F11'
_cell_volume   350.59157159
_cell_formula_units_Z   1
loop_
 _symmetry_equiv_pos_site_id
 _symmetry_equiv_pos_as_xyz
  1  'x, y, z'
loop_
 _atom_site_type_symbol
 _atom_site_label
 _atom_site_symmetry_multiplicity
 _atom_site_fract_x
 _atom_site_fract_y
 _atom_site_fract_z
 _atom_site_occupancy
  Fe  Fe0  1  0.994685  0.994685  0.698064  1
  Fe  Fe1  1  0.000021  0.000021  0.899748  1
  Fe  Fe2  1  0.000021  0.000021  0.100252  1
  Fe  Fe3  1  0.994685  0.994685  0.301936  1
  Fe  Fe4  1  0.023873  0.023873  0.500000  1
  Fe  Fe5  1  0.499394  0.499394  0.802242  1
  Fe  Fe6  1  0.499394  0.499394  0.197758  1
  Fe  Fe7  1  0.500204  0.500204  1.000000  1
  Fe  Fe8  1  0.488574  0.488574  0.393630  1
  Fe  Fe9  1  0.488574  0.488574  0.606370  1
  O  O10  1  0.293966  0.293966  0.703085  1
  O  O11  1  0.299309  0.299309  0.900664  1
  O  O12  1  0.299309  0.299309  0.099336  1
  O  O13  1  0.293966  0.293966  0.296915  1
  O  O14  1  0.327400  0.327400  0.500000  1
  O  O15  1  0.697590  0.697590  0.700604  1
  O  O16  1  0.700188  0.700188  0.900375  1
  O  O17  1  0.700188  0.700188  0.099625  1
  O  O18  1  0.697590  0.697590  0.299396  1
  F  F19  1  0.805298  0.190040  0.800158  1
  F  F20  1  0.807026  0.192806  1.000000  1
  F  F21  1  0.805298  0.190040  0.199842  1
  F  F22  1  0.798365  0.201657  0.395608  1
  F  F23  1  0.798365  0.201657  0.604392  1
  F  F24  1  0.710521  0.710521  0.500000  1
  F  F25  1  0.190040  0.805298  0.800158  1
  F  F26  1  0.190040  0.805298  0.199842  1
  F  F27  1  0.192806  0.807026  1.000000  1
  F  F28  1  0.201657  0.798365  0.604392  1
  F  F29  1  0.201657  0.798365  0.395608  1
