# generated using pymatgen
data_CsTaGeS5
_symmetry_space_group_name_H-M   'P 1'
_cell_length_a   7.06243972
_cell_length_b   7.48602722
_cell_length_c   9.54045012
_cell_angle_alpha   67.34803610
_cell_angle_beta   77.48155578
_cell_angle_gamma   74.84190190
_symmetry_Int_Tables_number   1
_chemical_formula_structural   CsTaGeS5
_chemical_formula_sum   'Cs2 Ta2 Ge2 S10'
_cell_volume   445.46650862
_cell_formula_units_Z   2
loop_
 _symmetry_equiv_pos_site_id
 _symmetry_equiv_pos_as_xyz
  1  'x, y, z'
loop_
 _atom_site_type_symbol
 _atom_site_label
 _atom_site_symmetry_multiplicity
 _atom_site_fract_x
 _atom_site_fract_y
 _atom_site_fract_z
 _atom_site_occupancy
  Cs  Cs0  1  0.605308  0.351301  0.312321  1
  Cs  Cs1  1  0.394692  0.648699  0.687679  1
  Ta  Ta2  1  0.239753  0.028001  0.004256  1
  Ta  Ta3  1  0.760247  0.971999  0.995744  1
  Ge  Ge4  1  0.977191  0.702380  0.372371  1
  Ge  Ge5  1  0.022809  0.297620  0.627629  1
  S  S6  1  0.070034  0.760800  0.013609  1
  S  S7  1  0.437995  0.216334  0.031058  1
  S  S8  1  0.690753  0.861625  0.286269  1
  S  S9  1  0.210795  0.880332  0.288992  1
  S  S10  1  0.076849  0.390497  0.366420  1
  S  S11  1  0.923151  0.609503  0.633580  1
  S  S12  1  0.789205  0.119668  0.711008  1
  S  S13  1  0.309247  0.138375  0.713731  1
  S  S14  1  0.562005  0.783666  0.968942  1
  S  S15  1  0.929966  0.239200  0.986391  1
