# generated using pymatgen
data_K6Nb11O30
_symmetry_space_group_name_H-M   'P 1'
_cell_length_a   8.04968884
_cell_length_b   12.84999305
_cell_length_c   12.88427436
_cell_angle_alpha   90.00000000
_cell_angle_beta   90.00000000
_cell_angle_gamma   90.00000000
_symmetry_Int_Tables_number   1
_chemical_formula_structural   K6Nb11O30
_chemical_formula_sum   'K12 Nb22 O60'
_cell_volume   1332.72931328
_cell_formula_units_Z   2
loop_
 _symmetry_equiv_pos_site_id
 _symmetry_equiv_pos_as_xyz
  1  'x, y, z'
loop_
 _atom_site_type_symbol
 _atom_site_label
 _atom_site_symmetry_multiplicity
 _atom_site_fract_x
 _atom_site_fract_y
 _atom_site_fract_z
 _atom_site_occupancy
  K  K0  1  0.500000  0.995277  0.753716  1
  K  K1  1  0.000000  0.999076  0.755570  1
  K  K2  1  0.500000  0.326840  0.928757  1
  K  K3  1  0.000000  0.329756  0.926515  1
  K  K4  1  0.000000  0.826840  0.071243  1
  K  K5  1  0.500000  0.829756  0.073485  1
  K  K6  1  0.000000  0.495277  0.246284  1
  K  K7  1  0.500000  0.499076  0.244430  1
  K  K8  1  0.500000  0.174026  0.416247  1
  K  K9  1  0.000000  0.175187  0.418831  1
  K  K10  1  0.000000  0.674026  0.583753  1
  K  K11  1  0.500000  0.675187  0.581169  1
  Nb  Nb12  1  0.740222  0.509467  0.757283  1
  Nb  Nb13  1  0.259778  0.509467  0.757283  1
  Nb  Nb14  1  0.749867  0.791220  0.833730  1
  Nb  Nb15  1  0.250133  0.791220  0.833730  1
  Nb  Nb16  1  0.749948  0.076560  0.959088  1
  Nb  Nb17  1  0.250052  0.076560  0.959088  1
  Nb  Nb18  1  0.750052  0.576560  0.040912  1
  Nb  Nb19  1  0.249948  0.576560  0.040912  1
  Nb  Nb20  1  0.750133  0.291220  0.166270  1
  Nb  Nb21  1  0.249867  0.291220  0.166270  1
  Nb  Nb22  1  0.240222  0.009467  0.242717  1
  Nb  Nb23  1  0.759778  0.009467  0.242717  1
  Nb  Nb24  1  0.758064  0.704535  0.324262  1
  Nb  Nb25  1  0.241936  0.704535  0.324262  1
  Nb  Nb26  1  0.500000  0.882372  0.368789  1
  Nb  Nb27  1  0.741240  0.421478  0.454256  1
  Nb  Nb28  1  0.258760  0.421478  0.454256  1
  Nb  Nb29  1  0.758760  0.921478  0.545744  1
  Nb  Nb30  1  0.241240  0.921478  0.545744  1
  Nb  Nb31  1  0.000000  0.382372  0.631211  1
  Nb  Nb32  1  0.741936  0.204535  0.675738  1
  Nb  Nb33  1  0.258064  0.204535  0.675738  1
  O  O34  1  0.500000  0.490754  0.740284  1
  O  O35  1  0.000000  0.495259  0.747444  1
  O  O36  1  0.796265  0.347014  0.738572  1
  O  O37  1  0.203735  0.347014  0.738572  1
  O  O38  1  0.750346  0.143947  0.816355  1
  O  O39  1  0.249654  0.143947  0.816355  1
  O  O40  1  0.500000  0.791735  0.826481  1
  O  O41  1  0.000000  0.793426  0.824498  1
  O  O42  1  0.749795  0.931382  0.890309  1
  O  O43  1  0.250205  0.931382  0.890309  1
  O  O44  1  0.749505  0.495298  0.905079  1
  O  O45  1  0.250495  0.495298  0.905079  1
  O  O46  1  0.751456  0.713069  0.962965  1
  O  O47  1  0.248544  0.713069  0.962965  1
  O  O48  1  0.500000  0.077336  0.955240  1
  O  O49  1  0.000000  0.076614  0.956783  1
  O  O50  1  0.500000  0.576614  0.043217  1
  O  O51  1  0.000000  0.577336  0.044760  1
  O  O52  1  0.748544  0.213069  0.037035  1
  O  O53  1  0.251456  0.213069  0.037035  1
  O  O54  1  0.750495  0.995298  0.094921  1
  O  O55  1  0.249505  0.995298  0.094921  1
  O  O56  1  0.750205  0.431382  0.109691  1
  O  O57  1  0.249795  0.431382  0.109691  1
  O  O58  1  0.000000  0.291735  0.173519  1
  O  O59  1  0.500000  0.293426  0.175502  1
  O  O60  1  0.749654  0.643947  0.183645  1
  O  O61  1  0.250346  0.643947  0.183645  1
  O  O62  1  0.296265  0.847014  0.261428  1
  O  O63  1  0.703735  0.847014  0.261428  1
  O  O64  1  0.000000  0.990754  0.259716  1
  O  O65  1  0.500000  0.995259  0.252556  1
  O  O66  1  0.750748  0.155243  0.256000  1
  O  O67  1  0.249252  0.155243  0.256000  1
  O  O68  1  0.752276  0.359823  0.321432  1
  O  O69  1  0.247724  0.359823  0.321432  1
  O  O70  1  0.000000  0.714311  0.325932  1
  O  O71  1  0.500000  0.719687  0.339323  1
  O  O72  1  0.747602  0.570180  0.395219  1
  O  O73  1  0.252398  0.570180  0.395219  1
  O  O74  1  0.701153  0.989533  0.401256  1
  O  O75  1  0.298847  0.989533  0.401256  1
  O  O76  1  0.734010  0.791613  0.459594  1
  O  O77  1  0.265990  0.791613  0.459594  1
  O  O78  1  0.500000  0.425323  0.466895  1
  O  O79  1  0.000000  0.414386  0.470421  1
  O  O80  1  0.500000  0.914386  0.529579  1
  O  O81  1  0.000000  0.925323  0.533105  1
  O  O82  1  0.765990  0.291613  0.540406  1
  O  O83  1  0.234010  0.291613  0.540406  1
  O  O84  1  0.798847  0.489533  0.598744  1
  O  O85  1  0.201153  0.489533  0.598744  1
  O  O86  1  0.752398  0.070180  0.604781  1
  O  O87  1  0.247602  0.070180  0.604781  1
  O  O88  1  0.500000  0.214311  0.674068  1
  O  O89  1  0.000000  0.219687  0.660677  1
  O  O90  1  0.747724  0.859823  0.678568  1
  O  O91  1  0.252276  0.859823  0.678568  1
  O  O92  1  0.749252  0.655243  0.744000  1
  O  O93  1  0.250748  0.655243  0.744000  1
