# generated using pymatgen
data_Li3Mn4(BO3)4
_symmetry_space_group_name_H-M   'P 1'
_cell_length_a   5.29149444
_cell_length_b   6.20734276
_cell_length_c   7.84272779
_cell_angle_alpha   79.14850963
_cell_angle_beta   87.42971106
_cell_angle_gamma   87.53834419
_symmetry_Int_Tables_number   1
_chemical_formula_structural   Li3Mn4(BO3)4
_chemical_formula_sum   'Li3 Mn4 B4 O12'
_cell_volume   252.58593253
_cell_formula_units_Z   1
loop_
 _symmetry_equiv_pos_site_id
 _symmetry_equiv_pos_as_xyz
  1  'x, y, z'
loop_
 _atom_site_type_symbol
 _atom_site_label
 _atom_site_symmetry_multiplicity
 _atom_site_fract_x
 _atom_site_fract_y
 _atom_site_fract_z
 _atom_site_occupancy
  Li  Li0  1  0.574552  0.871587  0.811619  1
  Li  Li1  1  0.931435  0.632240  0.687673  1
  Li  Li2  1  0.412298  0.140394  0.204853  1
  Mn  Mn3  1  0.421595  0.417796  0.827855  1
  Mn  Mn4  1  0.084647  0.088681  0.667940  1
  Mn  Mn5  1  0.912774  0.933501  0.313624  1
  Mn  Mn6  1  0.580131  0.575606  0.185057  1
  B  B7  1  0.427227  0.764493  0.497886  1
  B  B8  1  0.923727  0.259390  0.994780  1
  B  B9  1  0.076519  0.754804  0.003268  1
  B  B10  1  0.575162  0.217142  0.504340  1
  O  O11  1  0.332493  0.701023  0.982527  1
  O  O12  1  0.932325  0.837347  0.861621  1
  O  O13  1  0.029292  0.342265  0.828702  1
  O  O14  1  0.167409  0.802462  0.514220  1
  O  O15  1  0.571104  0.665570  0.634767  1
  O  O16  1  0.545667  0.845326  0.335242  1
  O  O17  1  0.474441  0.156894  0.674828  1
  O  O18  1  0.435004  0.333112  0.376271  1
  O  O19  1  0.825519  0.141349  0.472449  1
  O  O20  1  0.954206  0.707894  0.169587  1
  O  O21  1  0.078635  0.143556  0.119621  1
  O  O22  1  0.667731  0.298943  0.031381  1
