# generated using pymatgen
data_LiCr(Si2O5)2
_symmetry_space_group_name_H-M   'P 1'
_cell_length_a   7.09060696
_cell_length_b   7.41969316
_cell_length_c   9.62853379
_cell_angle_alpha   99.07230823
_cell_angle_beta   103.50454925
_cell_angle_gamma   116.68988112
_symmetry_Int_Tables_number   1
_chemical_formula_structural   LiCr(Si2O5)2
_chemical_formula_sum   'Li2 Cr2 Si8 O20'
_cell_volume   419.49033717
_cell_formula_units_Z   2
loop_
 _symmetry_equiv_pos_site_id
 _symmetry_equiv_pos_as_xyz
  1  'x, y, z'
loop_
 _atom_site_type_symbol
 _atom_site_label
 _atom_site_symmetry_multiplicity
 _atom_site_fract_x
 _atom_site_fract_y
 _atom_site_fract_z
 _atom_site_occupancy
  Li  Li0  1  0.826008  0.332455  0.430591  1
  Li  Li1  1  0.604460  0.738202  0.956021  1
  Cr  Cr2  1  0.253286  0.320242  0.429759  1
  Cr  Cr3  1  0.746069  0.685040  0.572764  1
  Si  Si4  1  0.906103  0.281077  0.138331  1
  Si  Si5  1  0.239728  0.951219  0.192713  1
  Si  Si6  1  0.791790  0.605677  0.234172  1
  Si  Si7  1  0.394497  0.643001  0.246197  1
  Si  Si8  1  0.609383  0.359188  0.752083  1
  Si  Si9  1  0.195705  0.385110  0.759597  1
  Si  Si10  1  0.758901  0.049190  0.810077  1
  Si  Si11  1  0.096173  0.727065  0.858662  1
  O  O12  1  0.214065  0.919087  0.014847  1
  O  O13  1  0.994650  0.796898  0.204017  1
  O  O14  1  0.738192  0.378465  0.129779  1
  O  O15  1  0.578555  0.643195  0.168700  1
  O  O16  1  0.145187  0.459433  0.131810  1
  O  O17  1  0.416682  0.875334  0.266939  1
  O  O18  1  0.951427  0.227175  0.294534  1
  O  O19  1  0.335569  0.192792  0.281519  1
  O  O20  1  0.839413  0.605190  0.406049  1
  O  O21  1  0.443537  0.603681  0.411865  1
  O  O22  1  0.563848  0.395003  0.584103  1
  O  O23  1  0.112920  0.342403  0.580809  1
  O  O24  1  0.667101  0.803710  0.734657  1
  O  O25  1  0.040796  0.787050  0.707055  1
  O  O26  1  0.584514  0.127272  0.737732  1
  O  O27  1  0.860761  0.538831  0.865744  1
  O  O28  1  0.434500  0.389105  0.824697  1
  O  O29  1  0.263199  0.624428  0.857858  1
  O  O30  1  0.003875  0.204420  0.802113  1
  O  O31  1  0.783401  0.070459  0.989786  1
