# generated using pymatgen
data_BPt3
_symmetry_space_group_name_H-M   'P 1'
_cell_length_a   7.15724187
_cell_length_b   7.15724187
_cell_length_c   2.75524597
_cell_angle_alpha   90.00000000
_cell_angle_beta   90.00000000
_cell_angle_gamma   120.00000000
_symmetry_Int_Tables_number   1
_chemical_formula_structural   BPt3
_chemical_formula_sum   'B2 Pt6'
_cell_volume   122.23128999
_cell_formula_units_Z   2
loop_
 _symmetry_equiv_pos_site_id
 _symmetry_equiv_pos_as_xyz
  1  'x, y, z'
loop_
 _atom_site_type_symbol
 _atom_site_label
 _atom_site_symmetry_multiplicity
 _atom_site_fract_x
 _atom_site_fract_y
 _atom_site_fract_z
 _atom_site_occupancy
  B  B0  1  0.333333  0.666667  0.750000  1
  B  B1  1  0.666667  0.333333  0.250000  1
  Pt  Pt2  1  0.197410  0.394820  0.250000  1
  Pt  Pt3  1  0.605180  0.802590  0.250000  1
  Pt  Pt4  1  0.197410  0.802590  0.250000  1
  Pt  Pt5  1  0.802590  0.605180  0.750000  1
  Pt  Pt6  1  0.394820  0.197410  0.750000  1
  Pt  Pt7  1  0.802590  0.197410  0.750000  1
