# generated using pymatgen
data_TlW2(Cl3O)2
_symmetry_space_group_name_H-M   'P 1'
_cell_length_a   6.99681307
_cell_length_b   6.99681307
_cell_length_c   11.48134672
_cell_angle_alpha   71.92361308
_cell_angle_beta   108.07638692
_cell_angle_gamma   147.90239810
_symmetry_Int_Tables_number   1
_chemical_formula_structural   TlW2(Cl3O)2
_chemical_formula_sum   'Tl1 W2 Cl6 O2'
_cell_volume   282.67000003
_cell_formula_units_Z   1
loop_
 _symmetry_equiv_pos_site_id
 _symmetry_equiv_pos_as_xyz
  1  'x, y, z'
loop_
 _atom_site_type_symbol
 _atom_site_label
 _atom_site_symmetry_multiplicity
 _atom_site_fract_x
 _atom_site_fract_y
 _atom_site_fract_z
 _atom_site_occupancy
  Tl  Tl0  1  0.500000  0.500000  0.500000  1
  W  W1  1  0.994923  0.005077  0.835001  1
  W  W2  1  0.005077  0.994923  0.164999  1
  Cl  Cl3  1  0.867693  0.132307  0.957271  1
  Cl  Cl4  1  0.127712  0.872288  0.733700  1
  Cl  Cl5  1  0.856814  0.143186  0.642462  1
  Cl  Cl6  1  0.143186  0.856814  0.357538  1
  Cl  Cl7  1  0.872288  0.127712  0.266300  1
  Cl  Cl8  1  0.132307  0.867693  0.042729  1
  O  O9  1  0.496751  0.503249  0.841664  1
  O  O10  1  0.503249  0.496751  0.158336  1
