# generated using pymatgen
data_Li3CrP2O9
_symmetry_space_group_name_H-M   'P 1'
_cell_length_a   6.82362438
_cell_length_b   8.83854672
_cell_length_c   11.68512575
_cell_angle_alpha   90.00000000
_cell_angle_beta   90.53523555
_cell_angle_gamma   90.00000000
_symmetry_Int_Tables_number   1
_chemical_formula_structural   Li3CrP2O9
_chemical_formula_sum   'Li12 Cr4 P8 O36'
_cell_volume   704.70996882
_cell_formula_units_Z   4
loop_
 _symmetry_equiv_pos_site_id
 _symmetry_equiv_pos_as_xyz
  1  'x, y, z'
loop_
 _atom_site_type_symbol
 _atom_site_label
 _atom_site_symmetry_multiplicity
 _atom_site_fract_x
 _atom_site_fract_y
 _atom_site_fract_z
 _atom_site_occupancy
  Li  Li0  1  0.392791  0.389743  0.079450  1
  Li  Li1  1  0.316686  0.245187  0.491917  1
  Li  Li2  1  0.240584  0.905592  0.743471  1
  Li  Li3  1  0.260030  0.094316  0.243625  1
  Li  Li4  1  0.183539  0.754572  0.990982  1
  Li  Li5  1  0.107099  0.610623  0.579138  1
  Li  Li6  1  0.892901  0.110623  0.420862  1
  Li  Li7  1  0.816461  0.254572  0.009018  1
  Li  Li8  1  0.739970  0.594316  0.756375  1
  Li  Li9  1  0.759416  0.405592  0.256529  1
  Li  Li10  1  0.683314  0.745187  0.508083  1
  Li  Li11  1  0.607209  0.889743  0.920550  1
  Cr  Cr12  1  0.481032  0.755174  0.245133  1
  Cr  Cr13  1  0.020671  0.245315  0.746681  1
  Cr  Cr14  1  0.979329  0.745315  0.253319  1
  Cr  Cr15  1  0.518968  0.255174  0.754867  1
  P  P16  1  0.269197  0.127514  0.961797  1
  P  P17  1  0.264366  0.536482  0.831571  1
  P  P18  1  0.235282  0.463619  0.330951  1
  P  P19  1  0.230810  0.871935  0.461497  1
  P  P20  1  0.769190  0.371935  0.538503  1
  P  P21  1  0.764718  0.963619  0.669049  1
  P  P22  1  0.735634  0.036482  0.168429  1
  P  P23  1  0.730803  0.627514  0.038203  1
  O  O24  1  0.451025  0.217363  0.912303  1
  O  O25  1  0.455954  0.469218  0.776709  1
  O  O26  1  0.422346  0.801735  0.408877  1
  O  O27  1  0.411882  0.536444  0.264925  1
  O  O28  1  0.289687  0.959889  0.930838  1
  O  O29  1  0.284547  0.207175  0.703886  1
  O  O30  1  0.255622  0.704715  0.806144  1
  O  O31  1  0.266551  0.168651  0.087984  1
  O  O32  1  0.245705  0.487798  0.460684  1
  O  O33  1  0.253313  0.512640  0.961033  1
  O  O34  1  0.234216  0.831585  0.588093  1
  O  O35  1  0.242559  0.295014  0.306639  1
  O  O36  1  0.236617  0.792378  0.206984  1
  O  O37  1  0.207986  0.039807  0.430810  1
  O  O38  1  0.085995  0.459393  0.766546  1
  O  O39  1  0.076711  0.198625  0.906504  1
  O  O40  1  0.041359  0.533145  0.277016  1
  O  O41  1  0.045597  0.784082  0.410903  1
  O  O42  1  0.954403  0.284082  0.589097  1
  O  O43  1  0.958641  0.033145  0.722984  1
  O  O44  1  0.923289  0.698625  0.093496  1
  O  O45  1  0.914005  0.959393  0.233454  1
  O  O46  1  0.792014  0.539807  0.569190  1
  O  O47  1  0.763383  0.292378  0.793016  1
  O  O48  1  0.757441  0.795014  0.693361  1
  O  O49  1  0.765784  0.331585  0.411907  1
  O  O50  1  0.746687  0.012640  0.038967  1
  O  O51  1  0.733449  0.668651  0.912016  1
  O  O52  1  0.754295  0.987798  0.539316  1
  O  O53  1  0.744378  0.204715  0.193856  1
  O  O54  1  0.715453  0.707175  0.296114  1
  O  O55  1  0.710313  0.459889  0.069162  1
  O  O56  1  0.588118  0.036444  0.735075  1
  O  O57  1  0.577654  0.301735  0.591123  1
  O  O58  1  0.544046  0.969218  0.223291  1
  O  O59  1  0.548975  0.717363  0.087697  1
