# generated using pymatgen
data_LiV4O5F7
_symmetry_space_group_name_H-M   'P 1'
_cell_length_a   5.12539505
_cell_length_b   5.35016627
_cell_length_c   9.00732721
_cell_angle_alpha   72.98816573
_cell_angle_beta   74.90593711
_cell_angle_gamma   62.90882856
_symmetry_Int_Tables_number   1
_chemical_formula_structural   LiV4O5F7
_chemical_formula_sum   'Li1 V4 O5 F7'
_cell_volume   207.91582153
_cell_formula_units_Z   1
loop_
 _symmetry_equiv_pos_site_id
 _symmetry_equiv_pos_as_xyz
  1  'x, y, z'
loop_
 _atom_site_type_symbol
 _atom_site_label
 _atom_site_symmetry_multiplicity
 _atom_site_fract_x
 _atom_site_fract_y
 _atom_site_fract_z
 _atom_site_occupancy
  Li  Li0  1  0.679105  0.539262  0.098188  1
  V  V1  1  0.997641  0.003738  0.993301  1
  V  V2  1  0.530346  0.503232  0.506440  1
  V  V3  1  0.759155  0.791897  0.739877  1
  V  V4  1  0.210537  0.253697  0.252013  1
  O  O5  1  0.836400  0.425439  0.317625  1
  O  O6  1  0.833401  0.819694  0.934196  1
  O  O7  1  0.726942  0.112956  0.624147  1
  O  O8  1  0.675744  0.652404  0.583678  1
  O  O9  1  0.155659  0.153959  0.082804  1
  F  F10  1  0.761731  0.394404  0.883647  1
  F  F11  1  0.655190  0.092301  0.175955  1
  F  F12  1  0.336234  0.332115  0.419463  1
  F  F13  1  0.328197  0.927689  0.820250  1
  F  F14  1  0.254772  0.609792  0.120997  1
  F  F15  1  0.278916  0.869339  0.375108  1
  F  F16  1  0.178645  0.563068  0.675968  1
