# generated using pymatgen
data_Li4V2F9
_symmetry_space_group_name_H-M   'P 1'
_cell_length_a   5.17177861
_cell_length_b   5.17177861
_cell_length_c   13.93739073
_cell_angle_alpha   90.00000000
_cell_angle_beta   90.00000000
_cell_angle_gamma   120.00000000
_symmetry_Int_Tables_number   1
_chemical_formula_structural   Li4V2F9
_chemical_formula_sum   'Li8 V4 F18'
_cell_volume   322.84343439
_cell_formula_units_Z   2
loop_
 _symmetry_equiv_pos_site_id
 _symmetry_equiv_pos_as_xyz
  1  'x, y, z'
loop_
 _atom_site_type_symbol
 _atom_site_label
 _atom_site_symmetry_multiplicity
 _atom_site_fract_x
 _atom_site_fract_y
 _atom_site_fract_z
 _atom_site_occupancy
  Li  Li0  1  0.333333  0.666667  0.178357  1
  Li  Li1  1  0.666667  0.333333  0.018930  1
  Li  Li2  1  0.333333  0.666667  0.481070  1
  Li  Li3  1  0.666667  0.333333  0.321643  1
  Li  Li4  1  0.333333  0.666667  0.981070  1
  Li  Li5  1  0.333333  0.666667  0.678357  1
  Li  Li6  1  0.666667  0.333333  0.518930  1
  Li  Li7  1  0.666667  0.333333  0.821643  1
  V  V8  1  0.000000  0.000000  0.151740  1
  V  V9  1  0.000000  0.000000  0.348260  1
  V  V10  1  0.000000  0.000000  0.651740  1
  V  V11  1  0.000000  0.000000  0.848260  1
  F  F12  1  0.688989  0.688989  0.750000  1
  F  F13  1  0.328030  0.976509  0.084632  1
  F  F14  1  0.671970  0.648479  0.415368  1
  F  F15  1  0.000000  0.688989  0.250000  1
  F  F16  1  0.023491  0.671970  0.584632  1
  F  F17  1  0.976509  0.648479  0.915368  1
  F  F18  1  0.311011  0.311011  0.250000  1
  F  F19  1  0.648479  0.976509  0.584632  1
  F  F20  1  0.351521  0.328030  0.915368  1
  F  F21  1  0.648479  0.671970  0.084632  1
  F  F22  1  0.351521  0.023491  0.415368  1
  F  F23  1  0.311011  0.000000  0.750000  1
  F  F24  1  0.023491  0.351521  0.084632  1
  F  F25  1  0.976509  0.328030  0.415368  1
  F  F26  1  0.000000  0.311011  0.750000  1
  F  F27  1  0.328030  0.351521  0.584632  1
  F  F28  1  0.671970  0.023491  0.915368  1
  F  F29  1  0.688989  0.000000  0.250000  1
