# generated using pymatgen
data_Li2CrFeO4
_symmetry_space_group_name_H-M   'P 1'
_cell_length_a   6.64665446
_cell_length_b   6.64665446
_cell_length_c   5.13403814
_cell_angle_alpha   82.72843449
_cell_angle_beta   97.27156551
_cell_angle_gamma   96.04448682
_symmetry_Int_Tables_number   1
_chemical_formula_structural   Li2CrFeO4
_chemical_formula_sum   'Li6 Cr3 Fe3 O12'
_cell_volume   222.25740188
_cell_formula_units_Z   3
loop_
 _symmetry_equiv_pos_site_id
 _symmetry_equiv_pos_as_xyz
  1  'x, y, z'
loop_
 _atom_site_type_symbol
 _atom_site_label
 _atom_site_symmetry_multiplicity
 _atom_site_fract_x
 _atom_site_fract_y
 _atom_site_fract_z
 _atom_site_occupancy
  Li  Li0  1  0.835173  0.334303  0.749661  1
  Li  Li1  1  0.500228  0.999527  0.755184  1
  Li  Li2  1  0.999527  0.500228  0.244816  1
  Li  Li3  1  0.664357  0.167800  0.249642  1
  Li  Li4  1  0.167800  0.664357  0.750358  1
  Li  Li5  1  0.334303  0.835173  0.250339  1
  Cr  Cr6  1  0.580516  0.580516  0.000000  1
  Cr  Cr7  1  0.414881  0.414881  0.500000  1
  Cr  Cr8  1  0.085784  0.085784  0.500000  1
  Fe  Fe9  1  0.250059  0.250059  0.000000  1
  Fe  Fe10  1  0.919428  0.919428  0.000000  1
  Fe  Fe11  1  0.750344  0.750344  0.500000  1
  O  O12  1  0.974333  0.199417  0.129280  1
  O  O13  1  0.524909  0.302887  0.871741  1
  O  O14  1  0.634222  0.862257  0.127788  1
  O  O15  1  0.302887  0.524909  0.128259  1
  O  O16  1  0.862257  0.634222  0.872212  1
  O  O17  1  0.803265  0.033381  0.627635  1
  O  O18  1  0.138816  0.360457  0.636011  1
  O  O19  1  0.199417  0.974333  0.870720  1
  O  O20  1  0.695168  0.468692  0.369556  1
  O  O21  1  0.468692  0.695168  0.630444  1
  O  O22  1  0.360457  0.138816  0.363989  1
  O  O23  1  0.033381  0.803265  0.372365  1
