# generated using pymatgen
data_Li3V3P8O29
_symmetry_space_group_name_H-M   'P 1'
_cell_length_a   9.74030312
_cell_length_b   9.74030312
_cell_length_c   14.31226680
_cell_angle_alpha   89.78510418
_cell_angle_beta   90.21489582
_cell_angle_gamma   119.89846406
_symmetry_Int_Tables_number   1
_chemical_formula_structural   Li3V3P8O29
_chemical_formula_sum   'Li6 V6 P16 O58'
_cell_volume   1177.12710490
_cell_formula_units_Z   2
loop_
 _symmetry_equiv_pos_site_id
 _symmetry_equiv_pos_as_xyz
  1  'x, y, z'
loop_
 _atom_site_type_symbol
 _atom_site_label
 _atom_site_symmetry_multiplicity
 _atom_site_fract_x
 _atom_site_fract_y
 _atom_site_fract_z
 _atom_site_occupancy
  Li  Li0  1  0.673824  0.907416  0.441107  1
  Li  Li1  1  0.672238  0.766817  0.941609  1
  Li  Li2  1  0.092584  0.326176  0.941107  1
  Li  Li3  1  0.233183  0.327762  0.441609  1
  Li  Li4  1  0.040135  0.984664  0.996639  1
  Li  Li5  1  0.015336  0.959865  0.496639  1
  V  V6  1  0.564998  0.564153  0.747863  1
  V  V7  1  0.435847  0.435002  0.247863  1
  V  V8  1  0.002888  0.566967  0.253333  1
  V  V9  1  0.997337  0.440453  0.748282  1
  V  V10  1  0.433033  0.997112  0.753333  1
  V  V11  1  0.559547  0.002663  0.248282  1
  P  P12  1  0.216696  0.915707  0.160291  1
  P  P13  1  0.084293  0.783304  0.660291  1
  P  P14  1  0.687354  0.914456  0.656151  1
  P  P15  1  0.334819  0.664352  0.868456  1
  P  P16  1  0.335648  0.665181  0.368456  1
  P  P17  1  0.685200  0.776362  0.157110  1
  P  P18  1  0.779625  0.694078  0.337122  1
  P  P19  1  0.085544  0.312646  0.156151  1
  P  P20  1  0.915039  0.696548  0.843383  1
  P  P21  1  0.223638  0.314800  0.657110  1
  P  P22  1  0.305922  0.220375  0.837122  1
  P  P23  1  0.662387  0.329323  0.634406  1
  P  P24  1  0.670677  0.337613  0.134406  1
  P  P25  1  0.303452  0.084961  0.343383  1
  P  P26  1  0.914427  0.219676  0.337102  1
  P  P27  1  0.780324  0.085573  0.837102  1
  O  O28  1  0.208022  0.008587  0.427431  1
  O  O29  1  0.259549  0.915097  0.671430  1
  O  O30  1  0.991413  0.791978  0.927431  1
  O  O31  1  0.084903  0.740451  0.171430  1
  O  O32  1  0.380062  0.921285  0.173108  1
  O  O33  1  0.333997  0.811626  0.823276  1
  O  O34  1  0.530198  0.913507  0.673498  1
  O  O35  1  0.790544  0.990966  0.915949  1
  O  O36  1  0.651456  0.914785  0.172413  1
  O  O37  1  0.188374  0.666003  0.323276  1
  O  O38  1  0.078715  0.619938  0.673108  1
  O  O39  1  0.485552  0.814719  0.327873  1
  O  O40  1  0.341543  0.663776  0.972321  1
  O  O41  1  0.336224  0.658457  0.472321  1
  O  O42  1  0.486838  0.669166  0.826283  1
  O  O43  1  0.086493  0.469802  0.173498  1
  O  O44  1  0.185281  0.514448  0.827873  1
  O  O45  1  0.657191  0.742681  0.672307  1
  O  O46  1  0.802310  0.791147  0.240159  1
  O  O47  1  0.793313  0.798286  0.416961  1
  O  O48  1  0.759634  0.785142  0.065311  1
  O  O49  1  0.527389  0.618479  0.174237  1
  O  O50  1  0.330834  0.513162  0.326283  1
  O  O51  1  0.737431  0.653115  0.837117  1
  O  O52  1  0.381521  0.472611  0.674237  1
  O  O53  1  0.085215  0.348544  0.672413  1
  O  O54  1  0.995850  0.799583  0.750730  1
  O  O55  1  0.007319  0.798772  0.575400  1
  O  O56  1  0.009034  0.209456  0.415949  1
  O  O57  1  0.915521  0.655030  0.335107  1
  O  O58  1  0.618924  0.538730  0.327186  1
  O  O59  1  0.257319  0.342809  0.172307  1
  O  O60  1  0.662438  0.477972  0.679340  1
  O  O61  1  0.461270  0.381076  0.827186  1
  O  O62  1  0.201714  0.206687  0.916961  1
  O  O63  1  0.214858  0.240366  0.565311  1
  O  O64  1  0.208853  0.197690  0.740159  1
  O  O65  1  0.346885  0.262569  0.337117  1
  O  O66  1  0.816507  0.480966  0.180650  1
  O  O67  1  0.922565  0.541440  0.829298  1
  O  O68  1  0.522028  0.337562  0.179340  1
  O  O69  1  0.668570  0.334286  0.031222  1
  O  O70  1  0.665714  0.331430  0.531222  1
  O  O71  1  0.519034  0.183493  0.680650  1
  O  O72  1  0.919703  0.381137  0.327545  1
  O  O73  1  0.813367  0.334646  0.681442  1
  O  O74  1  0.344970  0.084479  0.835107  1
  O  O75  1  0.200417  0.004150  0.250730  1
  O  O76  1  0.201228  0.992681  0.075400  1
  O  O77  1  0.458560  0.077435  0.329298  1
  O  O78  1  0.665354  0.186633  0.181442  1
  O  O79  1  0.618863  0.080297  0.827545  1
  O  O80  1  0.916721  0.260982  0.839013  1
  O  O81  1  0.022442  0.237112  0.063992  1
  O  O82  1  0.982359  0.194355  0.238854  1
  O  O83  1  0.739018  0.083279  0.339013  1
  O  O84  1  0.762888  0.977558  0.563992  1
  O  O85  1  0.805645  0.017641  0.738854  1
