# generated using pymatgen
data_Mn(PO3)5
_symmetry_space_group_name_H-M   'P 1'
_cell_length_a   5.03988031
_cell_length_b   13.69384917
_cell_length_c   9.06017694
_cell_angle_alpha   90.00000000
_cell_angle_beta   101.71651405
_cell_angle_gamma   90.00000000
_symmetry_Int_Tables_number   1
_chemical_formula_structural   Mn(PO3)5
_chemical_formula_sum   'Mn2 P10 O30'
_cell_volume   612.26301048
_cell_formula_units_Z   2
loop_
 _symmetry_equiv_pos_site_id
 _symmetry_equiv_pos_as_xyz
  1  'x, y, z'
loop_
 _atom_site_type_symbol
 _atom_site_label
 _atom_site_symmetry_multiplicity
 _atom_site_fract_x
 _atom_site_fract_y
 _atom_site_fract_z
 _atom_site_occupancy
  Mn  Mn0  1  0.500000  0.000000  0.500000  1
  Mn  Mn1  1  0.500000  0.500000  0.500000  1
  P  P2  1  0.992394  0.358504  0.475729  1
  P  P3  1  0.992394  0.141496  0.475729  1
  P  P4  1  0.355541  0.923013  0.812742  1
  P  P5  1  0.355541  0.576987  0.812742  1
  P  P6  1  0.451485  0.250000  0.006111  1
  P  P7  1  0.548515  0.750000  0.993889  1
  P  P8  1  0.644459  0.423013  0.187258  1
  P  P9  1  0.644459  0.076987  0.187258  1
  P  P10  1  0.007606  0.858504  0.524271  1
  P  P11  1  0.007606  0.641496  0.524271  1
  O  O12  1  0.042380  0.750000  0.465728  1
  O  O13  1  0.221956  0.973591  0.919624  1
  O  O14  1  0.221956  0.526409  0.919624  1
  O  O15  1  0.222469  0.250000  0.869126  1
  O  O16  1  0.132189  0.853616  0.697761  1
  O  O17  1  0.132189  0.646384  0.697761  1
  O  O18  1  0.165434  0.926229  0.440664  1
  O  O19  1  0.165434  0.573771  0.440664  1
  O  O20  1  0.295676  0.377659  0.504249  1
  O  O21  1  0.295676  0.122341  0.504249  1
  O  O22  1  0.500857  0.983033  0.710267  1
  O  O23  1  0.500857  0.516967  0.710267  1
  O  O24  1  0.571504  0.838931  0.881600  1
  O  O25  1  0.571504  0.661069  0.881600  1
  O  O26  1  0.289382  0.750000  0.053506  1
  O  O27  1  0.710618  0.250000  0.946494  1
  O  O28  1  0.428496  0.338931  0.118400  1
  O  O29  1  0.428496  0.161069  0.118400  1
  O  O30  1  0.499143  0.483033  0.289733  1
  O  O31  1  0.499143  0.016967  0.289733  1
  O  O32  1  0.704324  0.877659  0.495751  1
  O  O33  1  0.704324  0.622341  0.495751  1
  O  O34  1  0.834566  0.426229  0.559336  1
  O  O35  1  0.834566  0.073771  0.559336  1
  O  O36  1  0.867811  0.353616  0.302239  1
  O  O37  1  0.867811  0.146384  0.302239  1
  O  O38  1  0.777531  0.750000  0.130874  1
  O  O39  1  0.778044  0.473591  0.080376  1
  O  O40  1  0.778044  0.026409  0.080376  1
  O  O41  1  0.957620  0.250000  0.534272  1
