# generated using pymatgen
data_Li4Fe2Cu3O10
_symmetry_space_group_name_H-M   'P 1'
_cell_length_a   5.02102204
_cell_length_b   5.50173487
_cell_length_c   7.65365798
_cell_angle_alpha   102.27115175
_cell_angle_beta   103.06189257
_cell_angle_gamma   106.53415949
_symmetry_Int_Tables_number   1
_chemical_formula_structural   Li4Fe2Cu3O10
_chemical_formula_sum   'Li4 Fe2 Cu3 O10'
_cell_volume   188.56415642
_cell_formula_units_Z   1
loop_
 _symmetry_equiv_pos_site_id
 _symmetry_equiv_pos_as_xyz
  1  'x, y, z'
loop_
 _atom_site_type_symbol
 _atom_site_label
 _atom_site_symmetry_multiplicity
 _atom_site_fract_x
 _atom_site_fract_y
 _atom_site_fract_z
 _atom_site_occupancy
  Li  Li0  1  0.217948  0.904324  0.397915  1
  Li  Li1  1  0.393637  0.294467  0.771536  1
  Li  Li2  1  0.606363  0.705533  0.228464  1
  Li  Li3  1  0.782052  0.095676  0.602085  1
  Fe  Fe4  1  0.094069  0.678119  0.686846  1
  Fe  Fe5  1  0.905931  0.321881  0.313154  1
  Cu  Cu6  1  0.000000  0.500000  0.000000  1
  Cu  Cu7  1  0.696089  0.891478  0.902135  1
  Cu  Cu8  1  0.303911  0.108522  0.097865  1
  O  O9  1  0.050973  0.053106  0.854360  1
  O  O10  1  0.337964  0.657799  0.916470  1
  O  O11  1  0.112726  0.309448  0.537530  1
  O  O12  1  0.449791  0.915454  0.685171  1
  O  O13  1  0.211728  0.518987  0.236745  1
  O  O14  1  0.788272  0.481013  0.763255  1
  O  O15  1  0.550209  0.084546  0.314829  1
  O  O16  1  0.887274  0.690552  0.462470  1
  O  O17  1  0.662036  0.342201  0.083530  1
  O  O18  1  0.949027  0.946894  0.145640  1
