# generated using pymatgen
data_Li10Mg12Fe(PO4)12
_symmetry_space_group_name_H-M   'P 1'
_cell_length_a   5.96716900
_cell_length_b   10.25419646
_cell_length_c   14.26189498
_cell_angle_alpha   89.97016331
_cell_angle_beta   89.71685805
_cell_angle_gamma   89.89368549
_symmetry_Int_Tables_number   1
_chemical_formula_structural   Li10Mg12Fe(PO4)12
_chemical_formula_sum   'Li10 Mg12 Fe1 P12 O48'
_cell_volume   872.65201914
_cell_formula_units_Z   1
loop_
 _symmetry_equiv_pos_site_id
 _symmetry_equiv_pos_as_xyz
  1  'x, y, z'
loop_
 _atom_site_type_symbol
 _atom_site_label
 _atom_site_symmetry_multiplicity
 _atom_site_fract_x
 _atom_site_fract_y
 _atom_site_fract_z
 _atom_site_occupancy
  Li  Li0  1  0.500113  0.000018  0.333381  1
  Li  Li1  1  0.999931  0.999843  0.666610  1
  Li  Li2  1  0.499887  0.999982  0.666619  1
  Li  Li3  1  0.000000  0.000000  0.000000  1
  Li  Li4  1  0.500000  0.000000  0.000000  1
  Li  Li5  1  0.000069  0.000157  0.333390  1
  Li  Li6  1  0.000237  0.499792  0.166471  1
  Li  Li7  1  0.999763  0.500208  0.833529  1
  Li  Li8  1  0.499459  0.499982  0.166615  1
  Li  Li9  1  0.500541  0.500018  0.833385  1
  Mg  Mg10  1  0.750062  0.777920  0.827373  1
  Mg  Mg11  1  0.749459  0.778176  0.160527  1
  Mg  Mg12  1  0.755865  0.778043  0.494278  1
  Mg  Mg13  1  0.249745  0.722111  0.994065  1
  Mg  Mg14  1  0.249252  0.722904  0.327248  1
  Mg  Mg15  1  0.247442  0.722390  0.660616  1
  Mg  Mg16  1  0.750748  0.277096  0.672752  1
  Mg  Mg17  1  0.750255  0.277889  0.005935  1
  Mg  Mg18  1  0.752558  0.277610  0.339384  1
  Mg  Mg19  1  0.249938  0.222080  0.172627  1
  Mg  Mg20  1  0.250541  0.221824  0.839473  1
  Mg  Mg21  1  0.244135  0.221957  0.505722  1
  Fe  Fe22  1  0.500000  0.500000  0.500000  1
  P  P23  1  0.250143  0.904587  0.805927  1
  P  P24  1  0.249958  0.904596  0.139368  1
  P  P25  1  0.250623  0.904573  0.472676  1
  P  P26  1  0.750048  0.595454  0.972685  1
  P  P27  1  0.747788  0.595723  0.305290  1
  P  P28  1  0.757588  0.596207  0.640012  1
  P  P29  1  0.249952  0.404546  0.027315  1
  P  P30  1  0.252212  0.404277  0.694710  1
  P  P31  1  0.242412  0.403793  0.359988  1
  P  P32  1  0.750042  0.095404  0.860632  1
  P  P33  1  0.749857  0.095413  0.194073  1
  P  P34  1  0.749377  0.095427  0.527324  1
  O  O35  1  0.749792  0.953610  0.232304  1
  O  O36  1  0.750076  0.953610  0.899033  1
  O  O37  1  0.749495  0.953668  0.565678  1
  O  O38  1  0.249978  0.897940  0.913906  1
  O  O39  1  0.249584  0.897936  0.247046  1
  O  O40  1  0.249920  0.897990  0.580443  1
  O  O41  1  0.044611  0.833808  0.760545  1
  O  O42  1  0.456086  0.833204  0.759906  1
  O  O43  1  0.044498  0.833434  0.093628  1
  O  O44  1  0.045114  0.834085  0.426503  1
  O  O45  1  0.456037  0.833415  0.093238  1
  O  O46  1  0.456677  0.832901  0.426973  1
  O  O47  1  0.543934  0.667142  0.258472  1
  O  O48  1  0.955640  0.666373  0.260957  1
  O  O49  1  0.544416  0.666606  0.926914  1
  O  O50  1  0.545106  0.665474  0.593608  1
  O  O51  1  0.956049  0.666559  0.926793  1
  O  O52  1  0.954684  0.672039  0.596013  1
  O  O53  1  0.749941  0.602076  0.080484  1
  O  O54  1  0.751083  0.602318  0.748090  1
  O  O55  1  0.739631  0.603834  0.412971  1
  O  O56  1  0.249801  0.546358  0.065628  1
  O  O57  1  0.250361  0.546350  0.732239  1
  O  O58  1  0.256376  0.546626  0.395834  1
  O  O59  1  0.750199  0.453642  0.934372  1
  O  O60  1  0.743624  0.453374  0.604166  1
  O  O61  1  0.749639  0.453650  0.267761  1
  O  O62  1  0.250059  0.397924  0.919516  1
  O  O63  1  0.260369  0.396166  0.587029  1
  O  O64  1  0.248917  0.397682  0.251910  1
  O  O65  1  0.044360  0.333627  0.739043  1
  O  O66  1  0.043951  0.333441  0.073207  1
  O  O67  1  0.456066  0.332858  0.741528  1
  O  O68  1  0.455584  0.333394  0.073086  1
  O  O69  1  0.045316  0.327961  0.403987  1
  O  O70  1  0.454894  0.334526  0.406392  1
  O  O71  1  0.543323  0.167099  0.573027  1
  O  O72  1  0.954886  0.165915  0.573497  1
  O  O73  1  0.543914  0.166796  0.240094  1
  O  O74  1  0.543963  0.166585  0.906762  1
  O  O75  1  0.955502  0.166566  0.906372  1
  O  O76  1  0.955389  0.166192  0.239455  1
  O  O77  1  0.750080  0.102010  0.419557  1
  O  O78  1  0.750022  0.102060  0.086094  1
  O  O79  1  0.750416  0.102064  0.752954  1
  O  O80  1  0.250505  0.046332  0.434322  1
  O  O81  1  0.250208  0.046390  0.767696  1
  O  O82  1  0.249924  0.046390  0.100967  1
