# generated using pymatgen
data_LiMnP2O7
_symmetry_space_group_name_H-M   'P 1'
_cell_length_a   6.22504519
_cell_length_b   6.28250511
_cell_length_c   7.15995665
_cell_angle_alpha   68.03181982
_cell_angle_beta   75.93571979
_cell_angle_gamma   80.73530934
_symmetry_Int_Tables_number   1
_chemical_formula_structural   LiMnP2O7
_chemical_formula_sum   'Li2 Mn2 P4 O14'
_cell_volume   251.13614486
_cell_formula_units_Z   2
loop_
 _symmetry_equiv_pos_site_id
 _symmetry_equiv_pos_as_xyz
  1  'x, y, z'
loop_
 _atom_site_type_symbol
 _atom_site_label
 _atom_site_symmetry_multiplicity
 _atom_site_fract_x
 _atom_site_fract_y
 _atom_site_fract_z
 _atom_site_occupancy
  Li  Li0  1  0.663509  0.085763  0.837734  1
  Li  Li1  1  0.336491  0.914237  0.162266  1
  Mn  Mn2  1  0.941115  0.263802  0.220426  1
  Mn  Mn3  1  0.058885  0.736198  0.779574  1
  P  P4  1  0.820188  0.779432  0.248896  1
  P  P5  1  0.607032  0.630484  0.703534  1
  P  P6  1  0.392968  0.369516  0.296466  1
  P  P7  1  0.179812  0.220568  0.751104  1
  O  O8  1  0.007897  0.073206  0.737431  1
  O  O9  1  0.942303  0.601738  0.142622  1
  O  O10  1  0.751558  0.794250  0.731608  1
  O  O11  1  0.729294  0.612235  0.476768  1
  O  O12  1  0.647752  0.929686  0.138077  1
  O  O13  1  0.613581  0.391126  0.850327  1
  O  O14  1  0.623668  0.248133  0.332021  1
  O  O15  1  0.376332  0.751867  0.667979  1
  O  O16  1  0.386419  0.608874  0.149673  1
  O  O17  1  0.352248  0.070314  0.861923  1
  O  O18  1  0.270706  0.387765  0.523232  1
  O  O19  1  0.248442  0.205750  0.268392  1
  O  O20  1  0.057697  0.398262  0.857378  1
  O  O21  1  0.992103  0.926794  0.262569  1
