# generated using pymatgen
data_Fe4O3F5
_symmetry_space_group_name_H-M   'P 1'
_cell_length_a   4.76179012
_cell_length_b   7.83543746
_cell_length_c   7.95317554
_cell_angle_alpha   105.43201352
_cell_angle_beta   90.28445704
_cell_angle_gamma   90.55816187
_symmetry_Int_Tables_number   1
_chemical_formula_structural   Fe4O3F5
_chemical_formula_sum   'Fe8 O6 F10'
_cell_volume   286.01789886
_cell_formula_units_Z   2
loop_
 _symmetry_equiv_pos_site_id
 _symmetry_equiv_pos_as_xyz
  1  'x, y, z'
loop_
 _atom_site_type_symbol
 _atom_site_label
 _atom_site_symmetry_multiplicity
 _atom_site_fract_x
 _atom_site_fract_y
 _atom_site_fract_z
 _atom_site_occupancy
  Fe  Fe0  1  0.551992  0.866735  0.137935  1
  Fe  Fe1  1  0.448008  0.133265  0.862065  1
  Fe  Fe2  1  0.514592  0.631092  0.398125  1
  Fe  Fe3  1  0.485408  0.368908  0.601875  1
  Fe  Fe4  1  0.000000  0.500000  0.000000  1
  Fe  Fe5  1  0.041844  0.258686  0.239626  1
  Fe  Fe6  1  0.000000  0.000000  0.500000  1
  Fe  Fe7  1  0.958156  0.741314  0.760374  1
  O  O8  1  0.193490  0.270810  0.023859  1
  O  O9  1  0.302128  0.408837  0.397969  1
  O  O10  1  0.306537  0.157585  0.644342  1
  O  O11  1  0.697872  0.591163  0.602031  1
  O  O12  1  0.693463  0.842415  0.355658  1
  O  O13  1  0.806510  0.729190  0.976141  1
  F  F14  1  0.207832  0.025623  0.255152  1
  F  F15  1  0.212346  0.534432  0.772792  1
  F  F16  1  0.198318  0.770734  0.548751  1
  F  F17  1  0.307302  0.658473  0.164025  1
  F  F18  1  0.303804  0.901236  0.899705  1
  F  F19  1  0.692698  0.341527  0.835975  1
  F  F20  1  0.696196  0.098764  0.100295  1
  F  F21  1  0.792168  0.974377  0.744848  1
  F  F22  1  0.787654  0.465568  0.227208  1
  F  F23  1  0.801682  0.229266  0.451249  1
