# generated using pymatgen
data_Li2Cu(PO3)4
_symmetry_space_group_name_H-M   'P 1'
_cell_length_a   7.69317886
_cell_length_b   9.05903222
_cell_length_c   8.41525842
_cell_angle_alpha   90.00000000
_cell_angle_beta   121.54710325
_cell_angle_gamma   90.00000000
_symmetry_Int_Tables_number   1
_chemical_formula_structural   Li2Cu(PO3)4
_chemical_formula_sum   'Li4 Cu2 P8 O24'
_cell_volume   499.80648144
_cell_formula_units_Z   2
loop_
 _symmetry_equiv_pos_site_id
 _symmetry_equiv_pos_as_xyz
  1  'x, y, z'
loop_
 _atom_site_type_symbol
 _atom_site_label
 _atom_site_symmetry_multiplicity
 _atom_site_fract_x
 _atom_site_fract_y
 _atom_site_fract_z
 _atom_site_occupancy
  Li  Li0  1  0.761062  0.696108  0.645386  1
  Li  Li1  1  0.761062  0.803892  0.145386  1
  Li  Li2  1  0.238938  0.196108  0.854614  1
  Li  Li3  1  0.238938  0.303892  0.354614  1
  Cu  Cu4  1  0.000000  0.000000  0.000000  1
  Cu  Cu5  1  0.000000  0.500000  0.500000  1
  P  P6  1  0.435896  0.584960  0.258600  1
  P  P7  1  0.564104  0.084960  0.241400  1
  P  P8  1  0.812697  0.213732  0.634457  1
  P  P9  1  0.187303  0.713732  0.865543  1
  P  P10  1  0.812697  0.286268  0.134457  1
  P  P11  1  0.187303  0.786268  0.365543  1
  P  P12  1  0.435896  0.915040  0.758600  1
  P  P13  1  0.564104  0.415040  0.741400  1
  O  O14  1  0.341940  0.723452  0.312190  1
  O  O15  1  0.339446  0.115400  0.143135  1
  O  O16  1  0.355545  0.441688  0.277114  1
  O  O17  1  0.339123  0.612932  0.037196  1
  O  O18  1  0.660877  0.112932  0.462804  1
  O  O19  1  0.966354  0.113725  0.788931  1
  O  O20  1  0.644455  0.941688  0.222886  1
  O  O21  1  0.660554  0.615400  0.356865  1
  O  O22  1  0.077640  0.826789  0.910142  1
  O  O23  1  0.658060  0.223452  0.187810  1
  O  O24  1  0.922360  0.326789  0.589858  1
  O  O25  1  0.033646  0.613725  0.711069  1
  O  O26  1  0.966354  0.386275  0.288931  1
  O  O27  1  0.077640  0.673211  0.410142  1
  O  O28  1  0.341940  0.776548  0.812190  1
  O  O29  1  0.922360  0.173211  0.089858  1
  O  O30  1  0.339446  0.384600  0.643135  1
  O  O31  1  0.355545  0.058312  0.777114  1
  O  O32  1  0.033646  0.886275  0.211069  1
  O  O33  1  0.339123  0.887068  0.537196  1
  O  O34  1  0.660877  0.387068  0.962804  1
  O  O35  1  0.644455  0.558312  0.722886  1
  O  O36  1  0.660554  0.884600  0.856865  1
  O  O37  1  0.658060  0.276548  0.687810  1
