# generated using pymatgen
data_CoOF
_symmetry_space_group_name_H-M   'P 1'
_cell_length_a   4.73957850
_cell_length_b   2.89137294
_cell_length_c   18.70189377
_cell_angle_alpha   90.00000000
_cell_angle_beta   95.43584201
_cell_angle_gamma   90.00000000
_symmetry_Int_Tables_number   1
_chemical_formula_structural   CoOF
_chemical_formula_sum   'Co8 O8 F8'
_cell_volume   255.13612059
_cell_formula_units_Z   8
loop_
 _symmetry_equiv_pos_site_id
 _symmetry_equiv_pos_as_xyz
  1  'x, y, z'
loop_
 _atom_site_type_symbol
 _atom_site_label
 _atom_site_symmetry_multiplicity
 _atom_site_fract_x
 _atom_site_fract_y
 _atom_site_fract_z
 _atom_site_occupancy
  Co  Co0  1  0.088909  0.000000  0.123050  1
  Co  Co1  1  0.911091  0.000000  0.876950  1
  Co  Co2  1  0.978446  0.000000  0.626208  1
  Co  Co3  1  0.021554  0.000000  0.373792  1
  Co  Co4  1  0.500000  0.500000  0.000000  1
  Co  Co5  1  0.452744  0.500000  0.754587  1
  Co  Co6  1  0.500000  0.500000  0.500000  1
  Co  Co7  1  0.547256  0.500000  0.245413  1
  O  O8  1  0.759270  0.500000  0.922014  1
  O  O9  1  0.681624  0.000000  0.548104  1
  O  O10  1  0.727931  0.000000  0.295181  1
  O  O11  1  0.630123  0.000000  0.802338  1
  O  O12  1  0.272069  0.000000  0.704819  1
  O  O13  1  0.369877  0.000000  0.197662  1
  O  O14  1  0.318376  0.000000  0.451896  1
  O  O15  1  0.240730  0.500000  0.077986  1
  F  F16  1  0.778547  0.500000  0.674386  1
  F  F17  1  0.823891  0.500000  0.422562  1
  F  F18  1  0.900336  0.500000  0.170464  1
  F  F19  1  0.748346  0.000000  0.051666  1
  F  F20  1  0.251654  0.000000  0.948334  1
  F  F21  1  0.099664  0.500000  0.829536  1
  F  F22  1  0.176109  0.500000  0.577438  1
  F  F23  1  0.221453  0.500000  0.325614  1
