# generated using pymatgen
data_U2Al3C4
_symmetry_space_group_name_H-M   'P 1'
_cell_length_a   3.39821800
_cell_length_b   3.39821800
_cell_length_c   23.33249635
_cell_angle_alpha   90.00000000
_cell_angle_beta   90.00000000
_cell_angle_gamma   120.00000000
_symmetry_Int_Tables_number   1
_chemical_formula_structural   U2Al3C4
_chemical_formula_sum   'U4 Al6 C8'
_cell_volume   233.34274939
_cell_formula_units_Z   2
loop_
 _symmetry_equiv_pos_site_id
 _symmetry_equiv_pos_as_xyz
  1  'x, y, z'
loop_
 _atom_site_type_symbol
 _atom_site_label
 _atom_site_symmetry_multiplicity
 _atom_site_fract_x
 _atom_site_fract_y
 _atom_site_fract_z
 _atom_site_occupancy
  U  U0  1  0.666667  0.333333  0.435948  1
  U  U1  1  0.333333  0.666667  0.935948  1
  U  U2  1  0.666667  0.333333  0.064052  1
  U  U3  1  0.333333  0.666667  0.564052  1
  Al  Al4  1  0.000000  0.000000  0.335071  1
  Al  Al5  1  0.000000  0.000000  0.835071  1
  Al  Al6  1  0.666667  0.333333  0.746358  1
  Al  Al7  1  0.333333  0.666667  0.246358  1
  Al  Al8  1  0.000000  0.000000  0.164929  1
  Al  Al9  1  0.000000  0.000000  0.664929  1
  C  C10  1  0.000000  0.000000  0.750000  1
  C  C11  1  0.000000  0.000000  0.250000  1
  C  C12  1  0.000000  0.000000  0.500000  1
  C  C13  1  0.000000  0.000000  0.000000  1
  C  C14  1  0.666667  0.333333  0.633197  1
  C  C15  1  0.333333  0.666667  0.133197  1
  C  C16  1  0.333333  0.666667  0.366803  1
  C  C17  1  0.666667  0.333333  0.866803  1
