# generated using pymatgen
data_KNa2LiZr2(Si2O5)6
_symmetry_space_group_name_H-M   'P 1'
_cell_length_a   10.38740489
_cell_length_b   10.38740489
_cell_length_c   14.66236285
_cell_angle_alpha   90.00000000
_cell_angle_beta   90.00000000
_cell_angle_gamma   120.66019191
_symmetry_Int_Tables_number   1
_chemical_formula_structural   KNa2LiZr2(Si2O5)6
_chemical_formula_sum   'K2 Na4 Li2 Zr4 Si24 O60'
_cell_volume   1360.88348912
_cell_formula_units_Z   2
loop_
 _symmetry_equiv_pos_site_id
 _symmetry_equiv_pos_as_xyz
  1  'x, y, z'
loop_
 _atom_site_type_symbol
 _atom_site_label
 _atom_site_symmetry_multiplicity
 _atom_site_fract_x
 _atom_site_fract_y
 _atom_site_fract_z
 _atom_site_occupancy
  K  K0  1  0.500000  0.500000  0.250000  1
  K  K1  1  0.500000  0.500000  0.750000  1
  Na  Na2  1  0.187516  0.840297  0.000000  1
  Na  Na3  1  0.159703  0.812484  0.500000  1
  Na  Na4  1  0.812484  0.159703  1.000000  1
  Na  Na5  1  0.840297  0.187516  0.500000  1
  Li  Li6  1  0.000000  0.000000  0.250000  1
  Li  Li7  1  0.000000  0.000000  0.750000  1
  Zr  Zr8  1  0.168900  0.831100  0.250000  1
  Zr  Zr9  1  0.168900  0.831100  0.750000  1
  Zr  Zr10  1  0.831100  0.168900  0.250000  1
  Zr  Zr11  1  0.831100  0.168900  0.750000  1
  Si  Si12  1  0.844013  0.619644  0.391393  1
  Si  Si13  1  0.844013  0.619644  0.608607  1
  Si  Si14  1  0.854587  0.730329  0.107681  1
  Si  Si15  1  0.854587  0.730329  0.892319  1
  Si  Si16  1  0.271624  0.622209  0.109371  1
  Si  Si17  1  0.271624  0.622209  0.890629  1
  Si  Si18  1  0.377791  0.728376  0.390629  1
  Si  Si19  1  0.377791  0.728376  0.609371  1
  Si  Si20  1  0.269671  0.145413  0.392319  1
  Si  Si21  1  0.269671  0.145413  0.607681  1
  Si  Si22  1  0.619644  0.844013  0.108607  1
  Si  Si23  1  0.619644  0.844013  0.891393  1
  Si  Si24  1  0.380356  0.155987  0.108607  1
  Si  Si25  1  0.380356  0.155987  0.891393  1
  Si  Si26  1  0.730329  0.854587  0.607681  1
  Si  Si27  1  0.730329  0.854587  0.392319  1
  Si  Si28  1  0.622209  0.271624  0.390629  1
  Si  Si29  1  0.622209  0.271624  0.609371  1
  Si  Si30  1  0.728376  0.377791  0.890629  1
  Si  Si31  1  0.728376  0.377791  0.109371  1
  Si  Si32  1  0.145413  0.269671  0.107681  1
  Si  Si33  1  0.145413  0.269671  0.892319  1
  Si  Si34  1  0.155987  0.380356  0.391393  1
  Si  Si35  1  0.155987  0.380356  0.608607  1
  O  O36  1  0.782572  0.552343  0.130223  1
  O  O37  1  0.782572  0.552343  0.869777  1
  O  O38  1  0.759646  0.715540  0.377015  1
  O  O39  1  0.759646  0.715540  0.622985  1
  O  O40  1  0.887675  0.626587  0.500000  1
  O  O41  1  0.912344  0.760871  1.000000  1
  O  O42  1  0.997307  0.683770  0.336752  1
  O  O43  1  0.997307  0.683770  0.663248  1
  O  O44  1  0.175725  0.681494  0.160557  1
  O  O45  1  0.175725  0.681494  0.839443  1
  O  O46  1  0.285201  0.550710  0.362083  1
  O  O47  1  0.285201  0.550710  0.637917  1
  O  O48  1  0.993228  0.836094  0.172459  1
  O  O49  1  0.993228  0.836094  0.827541  1
  O  O50  1  0.257764  0.648075  1.000000  1
  O  O51  1  0.351925  0.742236  0.500000  1
  O  O52  1  0.163906  0.006772  0.327541  1
  O  O53  1  0.163906  0.006772  0.672459  1
  O  O54  1  0.449290  0.714799  0.137917  1
  O  O55  1  0.449290  0.714799  0.862083  1
  O  O56  1  0.318506  0.824275  0.660557  1
  O  O57  1  0.318506  0.824275  0.339443  1
  O  O58  1  0.316230  0.002693  0.163248  1
  O  O59  1  0.316230  0.002693  0.836752  1
  O  O60  1  0.239129  0.087656  0.500000  1
  O  O61  1  0.552343  0.782572  0.369777  1
  O  O62  1  0.552343  0.782572  0.630223  1
  O  O63  1  0.373413  0.112325  1.000000  1
  O  O64  1  0.284460  0.240354  0.122985  1
  O  O65  1  0.284460  0.240354  0.877015  1
  O  O66  1  0.715540  0.759646  0.122985  1
  O  O67  1  0.715540  0.759646  0.877015  1
  O  O68  1  0.626587  0.887675  0.000000  1
  O  O69  1  0.447657  0.217428  0.369777  1
  O  O70  1  0.447657  0.217428  0.630223  1
  O  O71  1  0.760871  0.912344  0.500000  1
  O  O72  1  0.683770  0.997307  0.163248  1
  O  O73  1  0.683770  0.997307  0.836752  1
  O  O74  1  0.681494  0.175725  0.339443  1
  O  O75  1  0.681494  0.175725  0.660557  1
  O  O76  1  0.550710  0.285201  0.137917  1
  O  O77  1  0.550710  0.285201  0.862083  1
  O  O78  1  0.836094  0.993228  0.327541  1
  O  O79  1  0.836094  0.993228  0.672459  1
  O  O80  1  0.648075  0.257764  0.500000  1
  O  O81  1  0.742236  0.351925  0.000000  1
  O  O82  1  0.006772  0.163906  0.172459  1
  O  O83  1  0.006772  0.163906  0.827541  1
  O  O84  1  0.714799  0.449290  0.362083  1
  O  O85  1  0.714799  0.449290  0.637917  1
  O  O86  1  0.824275  0.318506  0.160557  1
  O  O87  1  0.824275  0.318506  0.839443  1
  O  O88  1  0.002693  0.316230  0.336752  1
  O  O89  1  0.002693  0.316230  0.663248  1
  O  O90  1  0.087656  0.239129  0.000000  1
  O  O91  1  0.112325  0.373413  0.500000  1
  O  O92  1  0.240354  0.284460  0.377015  1
  O  O93  1  0.240354  0.284460  0.622985  1
  O  O94  1  0.217428  0.447657  0.130223  1
  O  O95  1  0.217428  0.447657  0.869777  1
