# generated using pymatgen
data_Fe3(OF2)2
_symmetry_space_group_name_H-M   'P 1'
_cell_length_a   5.74945263
_cell_length_b   4.81172943
_cell_length_c   7.91761794
_cell_angle_alpha   90.00000000
_cell_angle_beta   93.44505285
_cell_angle_gamma   90.00000000
_symmetry_Int_Tables_number   1
_chemical_formula_structural   Fe3(OF2)2
_chemical_formula_sum   'Fe6 O4 F8'
_cell_volume   218.64356994
_cell_formula_units_Z   2
loop_
 _symmetry_equiv_pos_site_id
 _symmetry_equiv_pos_as_xyz
  1  'x, y, z'
loop_
 _atom_site_type_symbol
 _atom_site_label
 _atom_site_symmetry_multiplicity
 _atom_site_fract_x
 _atom_site_fract_y
 _atom_site_fract_z
 _atom_site_occupancy
  Fe  Fe0  1  0.219765  0.485276  0.998405  1
  Fe  Fe1  1  0.568439  0.491434  0.354716  1
  Fe  Fe2  1  0.905557  0.526079  0.674812  1
  Fe  Fe3  1  0.780235  0.985276  0.001595  1
  Fe  Fe4  1  0.431561  0.991434  0.645284  1
  Fe  Fe5  1  0.094443  0.026079  0.325188  1
  O  O6  1  0.036292  0.202148  0.092322  1
  O  O7  1  0.388871  0.199168  0.439269  1
  O  O8  1  0.963708  0.702148  0.907678  1
  O  O9  1  0.611129  0.699168  0.560731  1
  F  F10  1  0.711283  0.186399  0.772965  1
  F  F11  1  0.872380  0.306823  0.431713  1
  F  F12  1  0.541972  0.307993  0.099863  1
  F  F13  1  0.231639  0.294681  0.770471  1
  F  F14  1  0.288717  0.686399  0.227035  1
  F  F15  1  0.127620  0.806823  0.568287  1
  F  F16  1  0.458028  0.807993  0.900137  1
  F  F17  1  0.768361  0.794681  0.229529  1
