# generated using pymatgen
data_Li3CoO3
_symmetry_space_group_name_H-M   'P 1'
_cell_length_a   8.73879684
_cell_length_b   8.73879684
_cell_length_c   3.62356577
_cell_angle_alpha   90.00000000
_cell_angle_beta   90.00000000
_cell_angle_gamma   90.00000000
_symmetry_Int_Tables_number   1
_chemical_formula_structural   Li3CoO3
_chemical_formula_sum   'Li12 Co4 O12'
_cell_volume   276.71928979
_cell_formula_units_Z   4
loop_
 _symmetry_equiv_pos_site_id
 _symmetry_equiv_pos_as_xyz
  1  'x, y, z'
loop_
 _atom_site_type_symbol
 _atom_site_label
 _atom_site_symmetry_multiplicity
 _atom_site_fract_x
 _atom_site_fract_y
 _atom_site_fract_z
 _atom_site_occupancy
  Li  Li0  1  0.357266  0.104028  0.500000  1
  Li  Li1  1  0.604028  0.142734  0.000000  1
  Li  Li2  1  0.164822  0.164822  0.000000  1
  Li  Li3  1  0.664822  0.335178  0.500000  1
  Li  Li4  1  0.104028  0.357266  0.500000  1
  Li  Li5  1  0.857266  0.395972  0.000000  1
  Li  Li6  1  0.142734  0.604028  0.000000  1
  Li  Li7  1  0.895972  0.642734  0.500000  1
  Li  Li8  1  0.335178  0.664822  0.500000  1
  Li  Li9  1  0.835178  0.835178  0.000000  1
  Li  Li10  1  0.395972  0.857266  0.000000  1
  Li  Li11  1  0.642734  0.895972  0.500000  1
  Co  Co12  1  0.884699  0.115301  0.500000  1
  Co  Co13  1  0.384699  0.384699  0.000000  1
  Co  Co14  1  0.615301  0.615301  0.000000  1
  Co  Co15  1  0.115301  0.884699  0.500000  1
  O  O16  1  0.099287  0.099287  0.500000  1
  O  O17  1  0.678668  0.111321  0.500000  1
  O  O18  1  0.388679  0.178668  0.000000  1
  O  O19  1  0.888679  0.321332  0.500000  1
  O  O20  1  0.178668  0.388679  0.000000  1
  O  O21  1  0.599287  0.400713  0.000000  1
  O  O22  1  0.400713  0.599287  0.000000  1
  O  O23  1  0.821332  0.611321  0.000000  1
  O  O24  1  0.111321  0.678668  0.500000  1
  O  O25  1  0.611321  0.821332  0.000000  1
  O  O26  1  0.321332  0.888679  0.500000  1
  O  O27  1  0.900713  0.900713  0.500000  1
