# generated using pymatgen
data_Fe4O7F
_symmetry_space_group_name_H-M   'P 1'
_cell_length_a   7.32983708
_cell_length_b   7.32983708
_cell_length_c   6.44156419
_cell_angle_alpha   90.00000000
_cell_angle_beta   90.00000000
_cell_angle_gamma   131.54122056
_symmetry_Int_Tables_number   1
_chemical_formula_structural   Fe4O7F
_chemical_formula_sum   'Fe8 O14 F2'
_cell_volume   259.03562393
_cell_formula_units_Z   2
loop_
 _symmetry_equiv_pos_site_id
 _symmetry_equiv_pos_as_xyz
  1  'x, y, z'
loop_
 _atom_site_type_symbol
 _atom_site_label
 _atom_site_symmetry_multiplicity
 _atom_site_fract_x
 _atom_site_fract_y
 _atom_site_fract_z
 _atom_site_occupancy
  Fe  Fe0  1  0.363109  0.122762  0.750000  1
  Fe  Fe1  1  0.877238  0.636891  0.750000  1
  Fe  Fe2  1  0.625188  0.374812  0.250000  1
  Fe  Fe3  1  0.119683  0.880317  0.250000  1
  Fe  Fe4  1  0.880317  0.119683  0.750000  1
  Fe  Fe5  1  0.374812  0.625188  0.750000  1
  Fe  Fe6  1  0.122762  0.363109  0.250000  1
  Fe  Fe7  1  0.636891  0.877238  0.250000  1
  O  O8  1  0.026935  0.973065  0.750000  1
  O  O9  1  0.532297  0.467703  0.750000  1
  O  O10  1  0.379231  0.127177  0.443202  1
  O  O11  1  0.872823  0.620769  0.443202  1
  O  O12  1  0.379231  0.127177  0.056798  1
  O  O13  1  0.127177  0.379231  0.556798  1
  O  O14  1  0.620769  0.872823  0.556798  1
  O  O15  1  0.872823  0.620769  0.056798  1
  O  O16  1  0.218325  0.781675  0.750000  1
  O  O17  1  0.973065  0.026935  0.250000  1
  O  O18  1  0.467703  0.532297  0.250000  1
  O  O19  1  0.781675  0.218325  0.250000  1
  O  O20  1  0.127177  0.379231  0.943202  1
  O  O21  1  0.620769  0.872823  0.943202  1
  F  F22  1  0.723287  0.276713  0.750000  1
  F  F23  1  0.276713  0.723287  0.250000  1
