# generated using pymatgen
data_La3H15I10O37
_symmetry_space_group_name_H-M   'P 1'
_cell_length_a   12.54921978
_cell_length_b   12.54921978
_cell_length_c   13.29989074
_cell_angle_alpha   90.00000000
_cell_angle_beta   90.00000000
_cell_angle_gamma   120.66550614
_symmetry_Int_Tables_number   1
_chemical_formula_structural   La3H15I10O37
_chemical_formula_sum   'La6 H30 I20 O74'
_cell_volume   1801.60883797
_cell_formula_units_Z   2
loop_
 _symmetry_equiv_pos_site_id
 _symmetry_equiv_pos_as_xyz
  1  'x, y, z'
loop_
 _atom_site_type_symbol
 _atom_site_label
 _atom_site_symmetry_multiplicity
 _atom_site_fract_x
 _atom_site_fract_y
 _atom_site_fract_z
 _atom_site_occupancy
  La  La0  1  0.990606  0.990606  0.000000  1
  La  La1  1  0.038328  0.514329  0.162963  1
  La  La2  1  0.538328  0.014329  0.337037  1
  La  La3  1  0.490606  0.490606  0.500000  1
  La  La4  1  0.014329  0.538328  0.662963  1
  La  La5  1  0.514329  0.038328  0.837037  1
  H  H6  1  0.712134  0.712134  0.000000  1
  H  H7  1  0.571074  0.634405  0.068741  1
  H  H8  1  0.265341  0.028360  0.047289  1
  H  H9  1  0.364513  0.337640  0.107876  1
  H  H10  1  0.267070  0.452028  0.120254  1
  H  H11  1  0.241208  0.505367  0.023608  1
  H  H12  1  0.226507  0.076917  0.143360  1
  H  H13  1  0.425192  0.450948  0.178325  1
  H  H14  1  0.925192  0.950948  0.321675  1
  H  H15  1  0.726507  0.576917  0.356640  1
  H  H16  1  0.741208  0.005367  0.476392  1
  H  H17  1  0.767070  0.952028  0.379746  1
  H  H18  1  0.864513  0.837640  0.392124  1
  H  H19  1  0.765341  0.528360  0.452711  1
  H  H20  1  0.071074  0.134405  0.431259  1
  H  H21  1  0.212134  0.212134  0.500000  1
  H  H22  1  0.134405  0.071074  0.568741  1
  H  H23  1  0.528360  0.765341  0.547289  1
  H  H24  1  0.837640  0.864513  0.607876  1
  H  H25  1  0.952028  0.767070  0.620254  1
  H  H26  1  0.005367  0.741208  0.523608  1
  H  H27  1  0.576917  0.726507  0.643360  1
  H  H28  1  0.950948  0.925192  0.678325  1
  H  H29  1  0.450948  0.425192  0.821675  1
  H  H30  1  0.076917  0.226507  0.856640  1
  H  H31  1  0.505367  0.241208  0.976392  1
  H  H32  1  0.452028  0.267070  0.879746  1
  H  H33  1  0.337640  0.364513  0.892124  1
  H  H34  1  0.028360  0.265341  0.952711  1
  H  H35  1  0.634405  0.571074  0.931259  1
  I  I36  1  0.369622  0.845809  0.079498  1
  I  I37  1  0.728901  0.082911  0.087026  1
  I  I38  1  0.838454  0.659872  0.120927  1
  I  I39  1  0.651785  0.340097  0.192632  1
  I  I40  1  0.082644  0.233590  0.247977  1
  I  I41  1  0.582644  0.733590  0.252023  1
  I  I42  1  0.151785  0.840097  0.307368  1
  I  I43  1  0.338454  0.159872  0.379073  1
  I  I44  1  0.228901  0.582911  0.412974  1
  I  I45  1  0.869622  0.345809  0.420502  1
  I  I46  1  0.345809  0.869622  0.579498  1
  I  I47  1  0.582911  0.228901  0.587026  1
  I  I48  1  0.159872  0.338454  0.620927  1
  I  I49  1  0.840097  0.151785  0.692632  1
  I  I50  1  0.733590  0.582644  0.747977  1
  I  I51  1  0.233590  0.082644  0.752023  1
  I  I52  1  0.340097  0.651785  0.807368  1
  I  I53  1  0.659872  0.838454  0.879073  1
  I  I54  1  0.082911  0.728901  0.912974  1
  I  I55  1  0.845809  0.369622  0.920502  1
  O  O56  1  0.633343  0.633343  0.000000  1
  O  O57  1  0.941177  0.345697  0.012336  1
  O  O58  1  0.581818  0.993973  0.016452  1
  O  O59  1  0.802080  0.002696  0.029191  1
  O  O60  1  0.208471  0.476869  0.091644  1
  O  O61  1  0.208728  0.056004  0.071179  1
  O  O62  1  0.204361  0.724383  0.090413  1
  O  O63  1  0.793066  0.428467  0.112121  1
  O  O64  1  0.856246  0.815408  0.118995  1
  O  O65  1  0.538417  0.327756  0.102360  1
  O  O66  1  0.509109  0.643773  0.135144  1
  O  O67  1  0.030925  0.107611  0.158552  1
  O  O68  1  0.344502  0.384581  0.155262  1
  O  O69  1  0.976719  0.683580  0.188004  1
  O  O70  1  0.639737  0.186832  0.183240  1
  O  O71  1  0.673782  0.990665  0.202733  1
  O  O72  1  0.966325  0.275904  0.221466  1
  O  O73  1  0.722078  0.594785  0.221564  1
  O  O74  1  0.383705  0.934914  0.193322  1
  O  O75  1  0.883705  0.434914  0.306678  1
  O  O76  1  0.222078  0.094785  0.278436  1
  O  O77  1  0.466325  0.775904  0.278534  1
  O  O78  1  0.173782  0.490665  0.297267  1
  O  O79  1  0.139737  0.686832  0.316760  1
  O  O80  1  0.476719  0.183580  0.311996  1
  O  O81  1  0.844502  0.884581  0.344738  1
  O  O82  1  0.530925  0.607611  0.341448  1
  O  O83  1  0.009109  0.143773  0.364856  1
  O  O84  1  0.038417  0.827756  0.397640  1
  O  O85  1  0.356246  0.315408  0.381005  1
  O  O86  1  0.293066  0.928467  0.387879  1
  O  O87  1  0.704361  0.224383  0.409587  1
  O  O88  1  0.708728  0.556004  0.428821  1
  O  O89  1  0.708471  0.976869  0.408356  1
  O  O90  1  0.302080  0.502696  0.470809  1
  O  O91  1  0.081818  0.493973  0.483548  1
  O  O92  1  0.441177  0.845697  0.487664  1
  O  O93  1  0.133343  0.133343  0.500000  1
  O  O94  1  0.845697  0.441177  0.512336  1
  O  O95  1  0.493973  0.081818  0.516452  1
  O  O96  1  0.502696  0.302080  0.529191  1
  O  O97  1  0.976869  0.708471  0.591644  1
  O  O98  1  0.556004  0.708728  0.571179  1
  O  O99  1  0.224383  0.704361  0.590413  1
  O  O100  1  0.928467  0.293066  0.612121  1
  O  O101  1  0.315408  0.356246  0.618995  1
  O  O102  1  0.827756  0.038417  0.602360  1
  O  O103  1  0.143773  0.009109  0.635144  1
  O  O104  1  0.607611  0.530925  0.658552  1
  O  O105  1  0.884581  0.844502  0.655262  1
  O  O106  1  0.183580  0.476719  0.688004  1
  O  O107  1  0.686832  0.139737  0.683240  1
  O  O108  1  0.490665  0.173782  0.702733  1
  O  O109  1  0.775904  0.466325  0.721466  1
  O  O110  1  0.094785  0.222078  0.721564  1
  O  O111  1  0.434914  0.883705  0.693322  1
  O  O112  1  0.934914  0.383705  0.806678  1
  O  O113  1  0.594785  0.722078  0.778436  1
  O  O114  1  0.275904  0.966325  0.778534  1
  O  O115  1  0.990665  0.673782  0.797267  1
  O  O116  1  0.186832  0.639737  0.816760  1
  O  O117  1  0.683580  0.976719  0.811996  1
  O  O118  1  0.384581  0.344502  0.844738  1
  O  O119  1  0.107611  0.030925  0.841448  1
  O  O120  1  0.643773  0.509109  0.864856  1
  O  O121  1  0.327756  0.538417  0.897640  1
  O  O122  1  0.815408  0.856246  0.881005  1
  O  O123  1  0.428467  0.793066  0.887879  1
  O  O124  1  0.724383  0.204361  0.909587  1
  O  O125  1  0.056004  0.208728  0.928821  1
  O  O126  1  0.476869  0.208471  0.908356  1
  O  O127  1  0.002696  0.802080  0.970809  1
  O  O128  1  0.993973  0.581818  0.983548  1
  O  O129  1  0.345697  0.941177  0.987664  1
