# generated using pymatgen
data_Th2Ni7
_symmetry_space_group_name_H-M   'P 1'
_cell_length_a   4.97426515
_cell_length_b   4.97426515
_cell_length_c   24.76198765
_cell_angle_alpha   90.00000000
_cell_angle_beta   90.00000000
_cell_angle_gamma   120.00000000
_symmetry_Int_Tables_number   1
_chemical_formula_structural   Th2Ni7
_chemical_formula_sum   'Th8 Ni28'
_cell_volume   530.60824799
_cell_formula_units_Z   4
loop_
 _symmetry_equiv_pos_site_id
 _symmetry_equiv_pos_as_xyz
  1  'x, y, z'
loop_
 _atom_site_type_symbol
 _atom_site_label
 _atom_site_symmetry_multiplicity
 _atom_site_fract_x
 _atom_site_fract_y
 _atom_site_fract_z
 _atom_site_occupancy
  Th  Th0  1  0.333333  0.666667  0.175665  1
  Th  Th1  1  0.666667  0.333333  0.675665  1
  Th  Th2  1  0.666667  0.333333  0.824335  1
  Th  Th3  1  0.333333  0.666667  0.324335  1
  Th  Th4  1  0.333333  0.666667  0.031952  1
  Th  Th5  1  0.666667  0.333333  0.531952  1
  Th  Th6  1  0.666667  0.333333  0.968048  1
  Th  Th7  1  0.333333  0.666667  0.468048  1
  Ni  Ni8  1  0.833423  0.666846  0.250000  1
  Ni  Ni9  1  0.166577  0.333154  0.750000  1
  Ni  Ni10  1  0.333154  0.166577  0.250000  1
  Ni  Ni11  1  0.833423  0.166577  0.250000  1
  Ni  Ni12  1  0.166577  0.833423  0.750000  1
  Ni  Ni13  1  0.666846  0.833423  0.750000  1
  Ni  Ni14  1  0.832783  0.665567  0.085539  1
  Ni  Ni15  1  0.167217  0.334433  0.585539  1
  Ni  Ni16  1  0.334433  0.167217  0.085539  1
  Ni  Ni17  1  0.832783  0.167217  0.085539  1
  Ni  Ni18  1  0.167217  0.832783  0.585539  1
  Ni  Ni19  1  0.665567  0.832783  0.585539  1
  Ni  Ni20  1  0.167217  0.334433  0.914461  1
  Ni  Ni21  1  0.167217  0.832783  0.914461  1
  Ni  Ni22  1  0.665567  0.832783  0.914461  1
  Ni  Ni23  1  0.334433  0.167217  0.414461  1
  Ni  Ni24  1  0.832783  0.167217  0.414461  1
  Ni  Ni25  1  0.832783  0.665567  0.414461  1
  Ni  Ni26  1  0.000000  0.000000  0.000000  1
  Ni  Ni27  1  0.000000  0.000000  0.500000  1
  Ni  Ni28  1  0.000000  0.000000  0.167376  1
  Ni  Ni29  1  0.000000  0.000000  0.667376  1
  Ni  Ni30  1  0.000000  0.000000  0.832624  1
  Ni  Ni31  1  0.000000  0.000000  0.332624  1
  Ni  Ni32  1  0.333333  0.666667  0.832475  1
  Ni  Ni33  1  0.666667  0.333333  0.332475  1
  Ni  Ni34  1  0.666667  0.333333  0.167525  1
  Ni  Ni35  1  0.333333  0.666667  0.667525  1
