# generated using pymatgen
data_HoHg3
_symmetry_space_group_name_H-M   'P 1'
_cell_length_a   6.64241212
_cell_length_b   6.64241212
_cell_length_c   5.02069359
_cell_angle_alpha   90.00000000
_cell_angle_beta   90.00000000
_cell_angle_gamma   120.00000000
_symmetry_Int_Tables_number   1
_chemical_formula_structural   HoHg3
_chemical_formula_sum   'Ho2 Hg6'
_cell_volume   191.84301175
_cell_formula_units_Z   2
loop_
 _symmetry_equiv_pos_site_id
 _symmetry_equiv_pos_as_xyz
  1  'x, y, z'
loop_
 _atom_site_type_symbol
 _atom_site_label
 _atom_site_symmetry_multiplicity
 _atom_site_fract_x
 _atom_site_fract_y
 _atom_site_fract_z
 _atom_site_occupancy
  Ho  Ho0  1  0.666667  0.333333  0.750000  1
  Ho  Ho1  1  0.333333  0.666667  0.250000  1
  Hg  Hg2  1  0.166727  0.333453  0.750000  1
  Hg  Hg3  1  0.166727  0.833273  0.750000  1
  Hg  Hg4  1  0.666547  0.833273  0.750000  1
  Hg  Hg5  1  0.833273  0.666547  0.250000  1
  Hg  Hg6  1  0.833273  0.166727  0.250000  1
  Hg  Hg7  1  0.333453  0.166727  0.250000  1
