# generated using pymatgen
data_Li3Mn4(BO3)4
_symmetry_space_group_name_H-M   'P 1'
_cell_length_a   5.23887807
_cell_length_b   7.92029285
_cell_length_c   12.36296459
_cell_angle_alpha   80.25904471
_cell_angle_beta   87.21795103
_cell_angle_gamma   88.17645356
_symmetry_Int_Tables_number   1
_chemical_formula_structural   Li3Mn4(BO3)4
_chemical_formula_sum   'Li6 Mn8 B8 O24'
_cell_volume   504.84512097
_cell_formula_units_Z   2
loop_
 _symmetry_equiv_pos_site_id
 _symmetry_equiv_pos_as_xyz
  1  'x, y, z'
loop_
 _atom_site_type_symbol
 _atom_site_label
 _atom_site_symmetry_multiplicity
 _atom_site_fract_x
 _atom_site_fract_y
 _atom_site_fract_z
 _atom_site_occupancy
  Li  Li0  1  0.087818  0.847587  0.484065  1
  Li  Li1  1  0.089447  0.845937  0.982067  1
  Li  Li2  1  0.912182  0.152413  0.515935  1
  Li  Li3  1  0.573650  0.366724  0.238947  1
  Li  Li4  1  0.426350  0.633276  0.761053  1
  Li  Li5  1  0.910553  0.154063  0.017933  1
  Mn  Mn6  1  0.601095  0.005506  0.370366  1
  Mn  Mn7  1  0.097552  0.489844  0.624348  1
  Mn  Mn8  1  0.902448  0.510156  0.375652  1
  Mn  Mn9  1  0.398905  0.994494  0.629634  1
  Mn  Mn10  1  0.595985  0.007134  0.870294  1
  Mn  Mn11  1  0.103615  0.505355  0.123298  1
  Mn  Mn12  1  0.896385  0.494645  0.876702  1
  Mn  Mn13  1  0.404015  0.992866  0.129706  1
  B  B14  1  0.903274  0.827461  0.704753  1
  B  B15  1  0.597260  0.672846  0.544020  1
  B  B16  1  0.900130  0.834226  0.198263  1
  B  B17  1  0.402740  0.327154  0.455980  1
  B  B18  1  0.599249  0.663061  0.040930  1
  B  B19  1  0.096726  0.172539  0.295247  1
  B  B20  1  0.400751  0.336939  0.959070  1
  B  B21  1  0.099870  0.165774  0.801737  1
  O  O22  1  0.009126  0.950653  0.623465  1
  O  O23  1  0.042872  0.681417  0.748279  1
  O  O24  1  0.647831  0.845890  0.740842  1
  O  O25  1  0.467694  0.829991  0.504474  1
  O  O26  1  0.481071  0.552980  0.619106  1
  O  O27  1  0.015706  0.953531  0.118356  1
  O  O28  1  0.855276  0.654709  0.508493  1
  O  O29  1  0.011534  0.673101  0.231055  1
  O  O30  1  0.660562  0.871592  0.243655  1
  O  O31  1  0.144724  0.345291  0.491507  1
  O  O32  1  0.518929  0.447020  0.380894  1
  O  O33  1  0.468568  0.817692  0.005275  1
  O  O34  1  0.532306  0.170009  0.495526  1
  O  O35  1  0.491621  0.532874  0.113294  1
  O  O36  1  0.858856  0.645887  0.003704  1
  O  O37  1  0.352169  0.154110  0.259158  1
  O  O38  1  0.957128  0.318583  0.251721  1
  O  O39  1  0.141144  0.354113  0.996296  1
  O  O40  1  0.990874  0.049347  0.376535  1
  O  O41  1  0.508379  0.467126  0.886706  1
  O  O42  1  0.531432  0.182308  0.994725  1
  O  O43  1  0.339438  0.128408  0.756345  1
  O  O44  1  0.988466  0.326899  0.768945  1
  O  O45  1  0.984294  0.046469  0.881644  1
