# generated using pymatgen
data_Li7Mn(PO4)4
_symmetry_space_group_name_H-M   'P 1'
_cell_length_a   4.76276667
_cell_length_b   5.95103668
_cell_length_c   10.22078784
_cell_angle_alpha   90.00000000
_cell_angle_beta   90.17599644
_cell_angle_gamma   90.00000000
_symmetry_Int_Tables_number   1
_chemical_formula_structural   Li7Mn(PO4)4
_chemical_formula_sum   'Li7 Mn1 P4 O16'
_cell_volume   289.69050254
_cell_formula_units_Z   1
loop_
 _symmetry_equiv_pos_site_id
 _symmetry_equiv_pos_as_xyz
  1  'x, y, z'
loop_
 _atom_site_type_symbol
 _atom_site_label
 _atom_site_symmetry_multiplicity
 _atom_site_fract_x
 _atom_site_fract_y
 _atom_site_fract_z
 _atom_site_occupancy
  Li  Li0  1  0.986786  0.261905  0.017050  1
  Li  Li1  1  0.986786  0.738095  0.017050  1
  Li  Li2  1  0.477798  0.000000  0.224173  1
  Li  Li3  1  0.497551  0.738177  0.488978  1
  Li  Li4  1  0.497551  0.261823  0.488978  1
  Li  Li5  1  0.524152  0.500000  0.776173  1
  Li  Li6  1  0.973654  0.500000  0.280121  1
  Mn  Mn7  1  0.008579  0.000000  0.720296  1
  P  P8  1  0.060758  0.500000  0.594343  1
  P  P9  1  0.427672  0.500000  0.093484  1
  P  P10  1  0.587953  0.000000  0.896115  1
  P  P11  1  0.930352  0.000000  0.410618  1
  O  O12  1  0.203991  0.500000  0.460181  1
  O  O13  1  0.193041  0.287413  0.668889  1
  O  O14  1  0.193041  0.712587  0.668889  1
  O  O15  1  0.250386  0.000000  0.415265  1
  O  O16  1  0.264088  0.000000  0.882571  1
  O  O17  1  0.293374  0.291433  0.160544  1
  O  O18  1  0.293374  0.708567  0.160544  1
  O  O19  1  0.307212  0.500000  0.950746  1
  O  O20  1  0.689709  0.000000  0.037301  1
  O  O21  1  0.735622  0.799644  0.820988  1
  O  O22  1  0.735622  0.200356  0.820988  1
  O  O23  1  0.748382  0.500000  0.095206  1
  O  O24  1  0.742106  0.500000  0.596068  1
  O  O25  1  0.794587  0.791688  0.347636  1
  O  O26  1  0.794587  0.208312  0.347636  1
  O  O27  1  0.801285  0.000000  0.559170  1
