# generated using pymatgen
data_V2Sn(PO4)3
_symmetry_space_group_name_H-M   'P 1'
_cell_length_a   8.99633138
_cell_length_b   8.99633138
_cell_length_c   8.99633138
_cell_angle_alpha   57.37077809
_cell_angle_beta   57.37077809
_cell_angle_gamma   57.37077809
_symmetry_Int_Tables_number   1
_chemical_formula_structural   V2Sn(PO4)3
_chemical_formula_sum   'V4 Sn2 P6 O24'
_cell_volume   483.69666298
_cell_formula_units_Z   2
loop_
 _symmetry_equiv_pos_site_id
 _symmetry_equiv_pos_as_xyz
  1  'x, y, z'
loop_
 _atom_site_type_symbol
 _atom_site_label
 _atom_site_symmetry_multiplicity
 _atom_site_fract_x
 _atom_site_fract_y
 _atom_site_fract_z
 _atom_site_occupancy
  V  V0  1  0.852332  0.852332  0.852332  1
  V  V1  1  0.647668  0.647668  0.647668  1
  V  V2  1  0.352332  0.352332  0.352332  1
  V  V3  1  0.147668  0.147668  0.147668  1
  Sn  Sn4  1  0.000000  0.000000  0.000000  1
  Sn  Sn5  1  0.500000  0.500000  0.500000  1
  P  P6  1  0.250000  0.536413  0.963587  1
  P  P7  1  0.963587  0.250000  0.536413  1
  P  P8  1  0.536413  0.963587  0.250000  1
  P  P9  1  0.463587  0.036413  0.750000  1
  P  P10  1  0.036413  0.750000  0.463587  1
  P  P11  1  0.750000  0.463587  0.036413  1
  O  O12  1  0.713606  0.492299  0.872367  1
  O  O13  1  0.492299  0.872367  0.713606  1
  O  O14  1  0.076729  0.721163  0.937974  1
  O  O15  1  0.872367  0.713606  0.492299  1
  O  O16  1  0.213606  0.372367  0.992299  1
  O  O17  1  0.423271  0.562026  0.778837  1
  O  O18  1  0.937974  0.076729  0.721163  1
  O  O19  1  0.778837  0.423271  0.562026  1
  O  O20  1  0.627633  0.007701  0.786394  1
  O  O21  1  0.562026  0.778837  0.423271  1
  O  O22  1  0.278837  0.062026  0.923271  1
  O  O23  1  0.007701  0.786394  0.627633  1
  O  O24  1  0.992299  0.213606  0.372367  1
  O  O25  1  0.721163  0.937974  0.076729  1
  O  O26  1  0.437974  0.221163  0.576729  1
  O  O27  1  0.372367  0.992299  0.213606  1
  O  O28  1  0.221163  0.576729  0.437974  1
  O  O29  1  0.062026  0.923271  0.278837  1
  O  O30  1  0.576729  0.437974  0.221163  1
  O  O31  1  0.786394  0.627633  0.007701  1
  O  O32  1  0.127633  0.286394  0.507701  1
  O  O33  1  0.923271  0.278837  0.062026  1
  O  O34  1  0.507701  0.127633  0.286394  1
  O  O35  1  0.286394  0.507701  0.127633  1
