# generated using pymatgen
data_Li3Fe8(BO3)8
_symmetry_space_group_name_H-M   'P 1'
_cell_length_a   5.22017882
_cell_length_b   9.15205509
_cell_length_c   10.13627788
_cell_angle_alpha   89.09782820
_cell_angle_beta   89.57759299
_cell_angle_gamma   89.33641645
_symmetry_Int_Tables_number   1
_chemical_formula_structural   Li3Fe8(BO3)8
_chemical_formula_sum   'Li3 Fe8 B8 O24'
_cell_volume   484.15934120
_cell_formula_units_Z   1
loop_
 _symmetry_equiv_pos_site_id
 _symmetry_equiv_pos_as_xyz
  1  'x, y, z'
loop_
 _atom_site_type_symbol
 _atom_site_label
 _atom_site_symmetry_multiplicity
 _atom_site_fract_x
 _atom_site_fract_y
 _atom_site_fract_z
 _atom_site_occupancy
  Li  Li0  1  0.152002  0.170893  0.647702  1
  Li  Li1  1  0.334891  0.318205  0.911728  1
  Li  Li2  1  0.682058  0.670402  0.150937  1
  Fe  Fe3  1  0.171018  0.828558  0.631092  1
  Fe  Fe4  1  0.186456  0.486942  0.136360  1
  Fe  Fe5  1  0.320653  0.987995  0.879581  1
  Fe  Fe6  1  0.325467  0.660193  0.379727  1
  Fe  Fe7  1  0.649286  0.349239  0.624009  1
  Fe  Fe8  1  0.671029  0.011889  0.125463  1
  Fe  Fe9  1  0.830718  0.166038  0.378330  1
  Fe  Fe10  1  0.831268  0.504986  0.874472  1
  B  B11  1  0.147548  0.499241  0.629670  1
  B  B12  1  0.170487  0.832984  0.133156  1
  B  B13  1  0.338065  0.998053  0.381412  1
  B  B14  1  0.333395  0.657398  0.875717  1
  B  B15  1  0.669968  0.002289  0.626660  1
  B  B16  1  0.672846  0.331729  0.123224  1
  B  B17  1  0.833199  0.495496  0.371525  1
  B  B18  1  0.831490  0.176315  0.879822  1
  O  O19  1  0.092339  0.503830  0.343184  1
  O  O20  1  0.089913  0.166230  0.856348  1
  O  O21  1  0.212304  0.780643  0.823478  1
  O  O22  1  0.259612  0.861848  0.430379  1
  O  O23  1  0.179064  0.115724  0.388380  1
  O  O24  1  0.190681  0.534747  0.914198  1
  O  O25  1  0.275765  0.369323  0.633079  1
  O  O26  1  0.323571  0.944849  0.085324  1
  O  O27  1  0.260879  0.626664  0.577401  1
  O  O28  1  0.293914  0.704961  0.177748  1
  O  O29  1  0.417240  0.323169  0.102723  1
  O  O30  1  0.407387  0.999362  0.661604  1
  O  O31  1  0.586810  0.010966  0.328923  1
  O  O32  1  0.591410  0.655407  0.895510  1
  O  O33  1  0.696477  0.306152  0.846782  1
  O  O34  1  0.735769  0.364883  0.418966  1
  O  O35  1  0.675177  0.613932  0.348811  1
  O  O36  1  0.688816  0.062408  0.933368  1
  O  O37  1  0.807977  0.458623  0.088394  1
  O  O38  1  0.822325  0.881504  0.635950  1
  O  O39  1  0.773571  0.135571  0.582109  1
  O  O40  1  0.807015  0.208185  0.174588  1
  O  O41  1  0.906833  0.845871  0.134060  1
  O  O42  1  0.899042  0.510789  0.679512  1
