# generated using pymatgen
data_Yb(ErS2)2
_symmetry_space_group_name_H-M   'P 1'
_cell_length_a   3.86006982
_cell_length_b   12.88656087
_cell_length_c   13.04410941
_cell_angle_alpha   90.00000000
_cell_angle_beta   90.00000000
_cell_angle_gamma   90.00000000
_symmetry_Int_Tables_number   1
_chemical_formula_structural   Yb(ErS2)2
_chemical_formula_sum   'Yb4 Er8 S16'
_cell_volume   648.85345654
_cell_formula_units_Z   4
loop_
 _symmetry_equiv_pos_site_id
 _symmetry_equiv_pos_as_xyz
  1  'x, y, z'
loop_
 _atom_site_type_symbol
 _atom_site_label
 _atom_site_symmetry_multiplicity
 _atom_site_fract_x
 _atom_site_fract_y
 _atom_site_fract_z
 _atom_site_occupancy
  Yb  Yb0  1  0.750000  0.630480  0.417221  1
  Yb  Yb1  1  0.250000  0.869520  0.917221  1
  Yb  Yb2  1  0.750000  0.130480  0.082779  1
  Yb  Yb3  1  0.250000  0.369520  0.582779  1
  Er  Er4  1  0.750000  0.892424  0.583715  1
  Er  Er5  1  0.250000  0.607576  0.083715  1
  Er  Er6  1  0.750000  0.392424  0.916285  1
  Er  Er7  1  0.250000  0.107576  0.416285  1
  Er  Er8  1  0.750000  0.853260  0.202188  1
  Er  Er9  1  0.250000  0.646740  0.702188  1
  Er  Er10  1  0.750000  0.353260  0.297812  1
  Er  Er11  1  0.250000  0.146740  0.797812  1
  S  S12  1  0.750000  0.529349  0.616730  1
  S  S13  1  0.250000  0.970651  0.116730  1
  S  S14  1  0.750000  0.029349  0.883270  1
  S  S15  1  0.250000  0.470651  0.383270  1
  S  S16  1  0.750000  0.783077  0.764011  1
  S  S17  1  0.250000  0.716923  0.264011  1
  S  S18  1  0.750000  0.283077  0.735989  1
  S  S19  1  0.250000  0.216923  0.235989  1
  S  S20  1  0.750000  0.965860  0.382243  1
  S  S21  1  0.250000  0.534140  0.882243  1
  S  S22  1  0.750000  0.465860  0.117757  1
  S  S23  1  0.250000  0.034140  0.617757  1
  S  S24  1  0.750000  0.743446  0.024680  1
  S  S25  1  0.250000  0.756554  0.524680  1
  S  S26  1  0.750000  0.243446  0.475320  1
  S  S27  1  0.250000  0.256554  0.975320  1
