# generated using pymatgen
data_AgIO3
_symmetry_space_group_name_H-M   'P 1'
_cell_length_a   5.91506423
_cell_length_b   6.64581725
_cell_length_c   8.44508393
_cell_angle_alpha   90.00000000
_cell_angle_beta   90.00000000
_cell_angle_gamma   90.00000000
_symmetry_Int_Tables_number   1
_chemical_formula_structural   AgIO3
_chemical_formula_sum   'Ag4 I4 O12'
_cell_volume   331.97993045
_cell_formula_units_Z   4
loop_
 _symmetry_equiv_pos_site_id
 _symmetry_equiv_pos_as_xyz
  1  'x, y, z'
loop_
 _atom_site_type_symbol
 _atom_site_label
 _atom_site_symmetry_multiplicity
 _atom_site_fract_x
 _atom_site_fract_y
 _atom_site_fract_z
 _atom_site_occupancy
  Ag  Ag0  1  0.000000  0.500000  0.000000  1
  Ag  Ag1  1  0.000000  0.500000  0.500000  1
  Ag  Ag2  1  0.500000  0.000000  0.000000  1
  Ag  Ag3  1  0.500000  0.000000  0.500000  1
  I  I4  1  0.012139  0.018199  0.250000  1
  I  I5  1  0.487861  0.518199  0.250000  1
  I  I6  1  0.512139  0.481801  0.750000  1
  I  I7  1  0.987861  0.981801  0.750000  1
  O  O8  1  0.132917  0.166719  0.085514  1
  O  O9  1  0.132917  0.166719  0.414486  1
  O  O10  1  0.215003  0.398273  0.750000  1
  O  O11  1  0.284997  0.898273  0.750000  1
  O  O12  1  0.367083  0.666719  0.085514  1
  O  O13  1  0.367083  0.666719  0.414486  1
  O  O14  1  0.632917  0.333281  0.914486  1
  O  O15  1  0.632917  0.333281  0.585514  1
  O  O16  1  0.715003  0.101727  0.250000  1
  O  O17  1  0.784997  0.601727  0.250000  1
  O  O18  1  0.867083  0.833281  0.585514  1
  O  O19  1  0.867083  0.833281  0.914486  1
