# generated using pymatgen
data_NbH8N2O2F5
_symmetry_space_group_name_H-M   'P 1'
_cell_length_a   7.74257983
_cell_length_b   9.08325219
_cell_length_c   9.45309285
_cell_angle_alpha   90.00000000
_cell_angle_beta   90.00000000
_cell_angle_gamma   90.00000000
_symmetry_Int_Tables_number   1
_chemical_formula_structural   NbH8N2O2F5
_chemical_formula_sum   'Nb4 H32 N8 O8 F20'
_cell_volume   664.81527246
_cell_formula_units_Z   4
loop_
 _symmetry_equiv_pos_site_id
 _symmetry_equiv_pos_as_xyz
  1  'x, y, z'
loop_
 _atom_site_type_symbol
 _atom_site_label
 _atom_site_symmetry_multiplicity
 _atom_site_fract_x
 _atom_site_fract_y
 _atom_site_fract_z
 _atom_site_occupancy
  Nb  Nb0  1  0.974907  0.750000  0.136467  1
  Nb  Nb1  1  0.474907  0.250000  0.363533  1
  Nb  Nb2  1  0.525093  0.750000  0.636467  1
  Nb  Nb3  1  0.025093  0.250000  0.863533  1
  H  H4  1  0.329687  0.439777  0.024781  1
  H  H5  1  0.329687  0.060223  0.024781  1
  H  H6  1  0.620780  0.419638  0.089535  1
  H  H7  1  0.620780  0.080362  0.089535  1
  H  H8  1  0.542046  0.903516  0.119920  1
  H  H9  1  0.542046  0.596484  0.119920  1
  H  H10  1  0.062641  0.250000  0.190208  1
  H  H11  1  0.867917  0.250000  0.239237  1
  H  H12  1  0.367917  0.750000  0.260763  1
  H  H13  1  0.562641  0.750000  0.309792  1
  H  H14  1  0.042046  0.403516  0.380080  1
  H  H15  1  0.042046  0.096484  0.380080  1
  H  H16  1  0.120780  0.919638  0.410465  1
  H  H17  1  0.120780  0.580362  0.410465  1
  H  H18  1  0.829687  0.939777  0.475219  1
  H  H19  1  0.829687  0.560223  0.475219  1
  H  H20  1  0.170313  0.439777  0.524781  1
  H  H21  1  0.170313  0.060223  0.524781  1
  H  H22  1  0.879220  0.419638  0.589535  1
  H  H23  1  0.879220  0.080362  0.589535  1
  H  H24  1  0.957954  0.903516  0.619920  1
  H  H25  1  0.957954  0.596484  0.619920  1
  H  H26  1  0.437359  0.250000  0.690208  1
  H  H27  1  0.632083  0.250000  0.739237  1
  H  H28  1  0.132083  0.750000  0.760763  1
  H  H29  1  0.937359  0.750000  0.809792  1
  H  H30  1  0.457954  0.403516  0.880080  1
  H  H31  1  0.457954  0.096484  0.880080  1
  H  H32  1  0.379220  0.919638  0.910465  1
  H  H33  1  0.379220  0.580362  0.910465  1
  H  H34  1  0.670313  0.939777  0.975219  1
  H  H35  1  0.670313  0.560223  0.975219  1
  N  N36  1  0.575548  0.982460  0.041561  1
  N  N37  1  0.575548  0.517540  0.041561  1
  N  N38  1  0.075548  0.482460  0.458439  1
  N  N39  1  0.075548  0.017540  0.458439  1
  N  N40  1  0.924452  0.982460  0.541561  1
  N  N41  1  0.924452  0.517540  0.541561  1
  N  N42  1  0.424452  0.482460  0.958439  1
  N  N43  1  0.424452  0.017540  0.958439  1
  O  O44  1  0.164232  0.250000  0.014313  1
  O  O45  1  0.487345  0.750000  0.224131  1
  O  O46  1  0.987345  0.250000  0.275869  1
  O  O47  1  0.664232  0.750000  0.485687  1
  O  O48  1  0.335768  0.250000  0.514313  1
  O  O49  1  0.012655  0.750000  0.724131  1
  O  O50  1  0.512655  0.250000  0.775869  1
  O  O51  1  0.835768  0.750000  0.985687  1
  F  F52  1  0.142867  0.898778  0.077608  1
  F  F53  1  0.142867  0.601222  0.077608  1
  F  F54  1  0.637562  0.250000  0.164609  1
  F  F55  1  0.850585  0.903148  0.245600  1
  F  F56  1  0.850585  0.596852  0.245600  1
  F  F57  1  0.350585  0.403148  0.254400  1
  F  F58  1  0.350585  0.096852  0.254400  1
  F  F59  1  0.137562  0.750000  0.335391  1
  F  F60  1  0.642867  0.398778  0.422392  1
  F  F61  1  0.642867  0.101222  0.422392  1
  F  F62  1  0.357133  0.898778  0.577608  1
  F  F63  1  0.357133  0.601222  0.577608  1
  F  F64  1  0.862438  0.250000  0.664609  1
  F  F65  1  0.649415  0.903148  0.745600  1
  F  F66  1  0.649415  0.596852  0.745600  1
  F  F67  1  0.149415  0.403148  0.754400  1
  F  F68  1  0.149415  0.096852  0.754400  1
  F  F69  1  0.362438  0.750000  0.835391  1
  F  F70  1  0.857133  0.398778  0.922392  1
  F  F71  1  0.857133  0.101222  0.922392  1
