# generated using pymatgen
data_Li2Fe(SiO3)2
_symmetry_space_group_name_H-M   'P 1'
_cell_length_a   16.07016603
_cell_length_b   12.40130221
_cell_length_c   11.15692604
_cell_angle_alpha   85.85137672
_cell_angle_beta   50.32472782
_cell_angle_gamma   43.82389546
_symmetry_Int_Tables_number   1
_chemical_formula_structural   Li2Fe(SiO3)2
_chemical_formula_sum   'Li12 Fe6 Si12 O36'
_cell_volume   811.76679935
_cell_formula_units_Z   6
loop_
 _symmetry_equiv_pos_site_id
 _symmetry_equiv_pos_as_xyz
  1  'x, y, z'
loop_
 _atom_site_type_symbol
 _atom_site_label
 _atom_site_symmetry_multiplicity
 _atom_site_fract_x
 _atom_site_fract_y
 _atom_site_fract_z
 _atom_site_occupancy
  Li  Li0  1  0.988492  0.988492  0.511508  1
  Li  Li1  1  0.650529  0.650530  0.849471  1
  Li  Li2  1  0.087308  0.454348  0.543393  1
  Li  Li3  1  0.795080  0.070492  0.924464  1
  Li  Li4  1  0.325536  0.040036  0.454920  1
  Li  Li5  1  0.706607  0.335050  0.162692  1
  Li  Li6  1  0.738492  0.738492  0.261508  1
  Li  Li7  1  0.400529  0.400529  0.599471  1
  Li  Li8  1  0.335050  0.706607  0.795652  1
  Li  Li9  1  0.040036  0.325536  0.179508  1
  Li  Li10  1  0.070492  0.795080  0.209964  1
  Li  Li11  1  0.454348  0.087308  0.914950  1
  Fe  Fe12  1  0.868720  0.868720  0.631280  1
  Fe  Fe13  1  0.921730  0.225418  0.744910  1
  Fe  Fe14  1  0.505090  0.142058  0.328270  1
  Fe  Fe15  1  0.618720  0.618720  0.381280  1
  Fe  Fe16  1  0.142058  0.505090  0.024582  1
  Fe  Fe17  1  0.225418  0.921730  0.107942  1
  Si  Si18  1  0.163750  0.163750  0.336250  1
  Si  Si19  1  0.486046  0.486046  0.013954  1
  Si  Si20  1  0.562198  0.955000  0.053598  1
  Si  Si21  1  0.285795  0.579718  0.430968  1
  Si  Si22  1  0.819032  0.546481  0.964205  1
  Si  Si23  1  0.196402  0.820797  0.687802  1
  Si  Si24  1  0.913750  0.913750  0.086250  1
  Si  Si25  1  0.236046  0.236046  0.763954  1
  Si  Si26  1  0.820797  0.196402  0.295000  1
  Si  Si27  1  0.546481  0.819032  0.670282  1
  Si  Si28  1  0.579718  0.285795  0.703519  1
  Si  Si29  1  0.955000  0.562198  0.429203  1
  O  O30  1  0.427357  0.983417  0.086162  1
  O  O31  1  0.748047  0.291877  0.776503  1
  O  O32  1  0.604947  0.019351  0.923806  1
  O  O33  1  0.026187  0.829781  0.606985  1
  O  O34  1  0.467109  0.422105  0.159927  1
  O  O35  1  0.179202  0.083048  0.451616  1
  O  O36  1  0.805448  0.678511  0.890883  1
  O  O37  1  0.762819  0.500532  0.925937  1
  O  O38  1  0.398499  0.123567  0.304543  1
  O  O39  1  0.945457  0.076609  0.851501  1
  O  O40  1  0.324063  0.439287  0.487181  1
  O  O41  1  0.359117  0.624842  0.444552  1
  O  O42  1  0.798384  0.963866  0.070798  1
  O  O43  1  0.090073  0.299140  0.782891  1
  O  O44  1  0.643015  0.712953  0.223813  1
  O  O45  1  0.326194  0.798104  0.645053  1
  O  O46  1  0.473497  0.066426  0.501953  1
  O  O47  1  0.163838  0.746937  0.822643  1
  O  O48  1  0.746937  0.163838  0.266583  1
  O  O49  1  0.066426  0.473497  0.958123  1
  O  O50  1  0.798104  0.326194  0.230649  1
  O  O51  1  0.712953  0.643015  0.420219  1
  O  O52  1  0.299140  0.090073  0.827895  1
  O  O53  1  0.963866  0.798384  0.166952  1
  O  O54  1  0.624842  0.359117  0.571489  1
  O  O55  1  0.439287  0.324063  0.749468  1
  O  O56  1  0.076609  0.945457  0.126433  1
  O  O57  1  0.123567  0.398499  0.173391  1
  O  O58  1  0.500532  0.762819  0.810713  1
  O  O59  1  0.678511  0.805448  0.625158  1
  O  O60  1  0.083048  0.179202  0.286134  1
  O  O61  1  0.422105  0.467109  0.950860  1
  O  O62  1  0.829781  0.026187  0.537047  1
  O  O63  1  0.019351  0.604947  0.451896  1
  O  O64  1  0.291877  0.748047  0.183574  1
  O  O65  1  0.983417  0.427357  0.503063  1
