# generated using pymatgen
data_Mn6O5F7
_symmetry_space_group_name_H-M   'P 1'
_cell_length_a   4.70856678
_cell_length_b   5.71971826
_cell_length_c   15.68255279
_cell_angle_alpha   90.25469691
_cell_angle_beta   90.04775676
_cell_angle_gamma   91.65055820
_symmetry_Int_Tables_number   1
_chemical_formula_structural   Mn6O5F7
_chemical_formula_sum   'Mn12 O10 F14'
_cell_volume   422.17781290
_cell_formula_units_Z   2
loop_
 _symmetry_equiv_pos_site_id
 _symmetry_equiv_pos_as_xyz
  1  'x, y, z'
loop_
 _atom_site_type_symbol
 _atom_site_label
 _atom_site_symmetry_multiplicity
 _atom_site_fract_x
 _atom_site_fract_y
 _atom_site_fract_z
 _atom_site_occupancy
  Mn  Mn0  1  0.010351  0.830300  0.584638  1
  Mn  Mn1  1  0.983472  0.174590  0.762921  1
  Mn  Mn2  1  0.991683  0.850226  0.919462  1
  Mn  Mn3  1  0.059091  0.831089  0.246841  1
  Mn  Mn4  1  0.014554  0.141943  0.420603  1
  Mn  Mn5  1  0.053681  0.166149  0.086923  1
  Mn  Mn6  1  0.459048  0.670148  0.418593  1
  Mn  Mn7  1  0.524216  0.635463  0.077640  1
  Mn  Mn8  1  0.516780  0.640556  0.744975  1
  Mn  Mn9  1  0.493739  0.352564  0.916565  1
  Mn  Mn10  1  0.487299  0.350721  0.578599  1
  Mn  Mn11  1  0.493670  0.350716  0.244233  1
  O  O12  1  0.213028  0.894511  0.366021  1
  O  O13  1  0.206091  0.115613  0.868144  1
  O  O14  1  0.217651  0.108119  0.530466  1
  O  O15  1  0.255015  0.115924  0.188831  1
  O  O16  1  0.262089  0.603674  0.522572  1
  O  O17  1  0.313548  0.599422  0.185225  1
  O  O18  1  0.298837  0.385160  0.024953  1
  O  O19  1  0.728828  0.619387  0.968675  1
  O  O20  1  0.699744  0.379367  0.807363  1
  O  O21  1  0.722745  0.605511  0.633995  1
  F  F22  1  0.219848  0.893159  0.702189  1
  F  F23  1  0.241056  0.880681  0.024658  1
  F  F24  1  0.244145  0.622552  0.850947  1
  F  F25  1  0.241677  0.387211  0.689429  1
  F  F26  1  0.241851  0.395473  0.354325  1
  F  F27  1  0.728316  0.379850  0.461890  1
  F  F28  1  0.783397  0.383780  0.143303  1
  F  F29  1  0.709189  0.627314  0.309313  1
  F  F30  1  0.745389  0.885887  0.814278  1
  F  F31  1  0.750036  0.884792  0.477653  1
  F  F32  1  0.754249  0.112452  0.644257  1
  F  F33  1  0.787013  0.119696  0.987475  1
  F  F34  1  0.792244  0.873465  0.135319  1
  F  F35  1  0.756432  0.132537  0.306724  1
