# generated using pymatgen
data_K2SrIn7
_symmetry_space_group_name_H-M   'P 1'
_cell_length_a   6.62286522
_cell_length_b   6.62286522
_cell_length_c   20.11289340
_cell_angle_alpha   90.00000000
_cell_angle_beta   90.00000000
_cell_angle_gamma   134.42601572
_symmetry_Int_Tables_number   1
_chemical_formula_structural   K2SrIn7
_chemical_formula_sum   'K4 Sr2 In14'
_cell_volume   630.02649877
_cell_formula_units_Z   2
loop_
 _symmetry_equiv_pos_site_id
 _symmetry_equiv_pos_as_xyz
  1  'x, y, z'
loop_
 _atom_site_type_symbol
 _atom_site_label
 _atom_site_symmetry_multiplicity
 _atom_site_fract_x
 _atom_site_fract_y
 _atom_site_fract_z
 _atom_site_occupancy
  K  K0  1  0.161315  0.838685  0.051583  1
  K  K1  1  0.838685  0.161315  0.551583  1
  K  K2  1  0.838685  0.161315  0.948417  1
  K  K3  1  0.161315  0.838685  0.448417  1
  Sr  Sr4  1  0.658363  0.341637  0.750000  1
  Sr  Sr5  1  0.341637  0.658363  0.250000  1
  In  In6  1  0.877855  0.122145  0.130207  1
  In  In7  1  0.122145  0.877855  0.630207  1
  In  In8  1  0.122145  0.877855  0.869793  1
  In  In9  1  0.877855  0.122145  0.369793  1
  In  In10  1  0.456852  0.543148  0.070981  1
  In  In11  1  0.543148  0.456852  0.570981  1
  In  In12  1  0.543148  0.456852  0.929019  1
  In  In13  1  0.456852  0.543148  0.429019  1
  In  In14  1  0.955200  0.044800  0.750000  1
  In  In15  1  0.044800  0.955200  0.250000  1
  In  In16  1  0.639164  0.360836  0.174415  1
  In  In17  1  0.360836  0.639164  0.674415  1
  In  In18  1  0.360836  0.639164  0.825585  1
  In  In19  1  0.639164  0.360836  0.325585  1
