# generated using pymatgen
data_Na2Ti4O9
_symmetry_space_group_name_H-M   'P 1'
_cell_length_a   8.87144883
_cell_length_b   11.13426558
_cell_length_c   11.75543726
_cell_angle_alpha   75.93888886
_cell_angle_beta   82.64717936
_cell_angle_gamma   74.58792797
_symmetry_Int_Tables_number   1
_chemical_formula_structural   Na2Ti4O9
_chemical_formula_sum   'Na12 Ti24 O54'
_cell_volume   1083.37134899
_cell_formula_units_Z   6
loop_
 _symmetry_equiv_pos_site_id
 _symmetry_equiv_pos_as_xyz
  1  'x, y, z'
loop_
 _atom_site_type_symbol
 _atom_site_label
 _atom_site_symmetry_multiplicity
 _atom_site_fract_x
 _atom_site_fract_y
 _atom_site_fract_z
 _atom_site_occupancy
  Na  Na0  1  0.949057  0.297122  0.852905  1
  Na  Na1  1  0.569048  0.306033  0.858789  1
  Na  Na2  1  0.844061  0.604219  0.723801  1
  Na  Na3  1  0.512093  0.603028  0.726563  1
  Na  Na4  1  0.180856  0.594673  0.725441  1
  Na  Na5  1  0.521621  0.099966  0.713469  1
  Na  Na6  1  0.162192  0.900116  0.285178  1
  Na  Na7  1  0.821958  0.398030  0.276941  1
  Na  Na8  1  0.485062  0.405740  0.275030  1
  Na  Na9  1  0.154870  0.397703  0.272902  1
  Na  Na10  1  0.710657  0.706994  0.147985  1
  Na  Na11  1  0.095146  0.694935  0.141827  1
  Ti  Ti12  1  0.917031  0.813469  0.875482  1
  Ti  Ti13  1  0.583662  0.810293  0.876604  1
  Ti  Ti14  1  0.172415  0.491320  0.990590  1
  Ti  Ti15  1  0.999782  0.004268  0.996609  1
  Ti  Ti16  1  0.248674  0.812039  0.875715  1
  Ti  Ti17  1  0.944808  0.882087  0.570041  1
  Ti  Ti18  1  0.615572  0.873954  0.562453  1
  Ti  Ti19  1  0.277542  0.882220  0.570318  1
  Ti  Ti20  1  0.781077  0.374769  0.558552  1
  Ti  Ti21  1  0.448354  0.376066  0.553657  1
  Ti  Ti22  1  0.886121  0.623745  0.443091  1
  Ti  Ti23  1  0.117844  0.371223  0.559200  1
  Ti  Ti24  1  0.549388  0.626465  0.441933  1
  Ti  Ti25  1  0.218206  0.622692  0.447308  1
  Ti  Ti26  1  0.722036  0.118121  0.429570  1
  Ti  Ti27  1  0.389301  0.117319  0.429678  1
  Ti  Ti28  1  0.051064  0.125666  0.436740  1
  Ti  Ti29  1  0.667632  0.996884  0.002932  1
  Ti  Ti30  1  0.333187  0.001177  0.998621  1
  Ti  Ti31  1  0.749367  0.187579  0.124559  1
  Ti  Ti32  1  0.418036  0.187283  0.124006  1
  Ti  Ti33  1  0.833892  0.501291  0.000521  1
  Ti  Ti34  1  0.496514  0.508659  0.009003  1
  Ti  Ti35  1  0.082063  0.191126  0.123082  1
  O  O36  1  0.777402  0.695904  0.940668  1
  O  O37  1  0.444627  0.695497  0.939004  1
  O  O38  1  0.710100  0.940771  0.849572  1
  O  O39  1  0.112366  0.695012  0.938025  1
  O  O40  1  0.380065  0.939852  0.850440  1
  O  O41  1  0.045564  0.938078  0.851403  1
  O  O42  1  0.689358  0.484745  0.893597  1
  O  O43  1  0.799504  0.126187  0.955705  1
  O  O44  1  0.357051  0.489173  0.890456  1
  O  O45  1  0.468552  0.122764  0.953761  1
  O  O46  1  0.020234  0.487515  0.888419  1
  O  O47  1  0.952584  0.781072  0.726541  1
  O  O48  1  0.131046  0.123812  0.955888  1
  O  O49  1  0.617982  0.784005  0.725639  1
  O  O50  1  0.284627  0.780580  0.726651  1
  O  O51  1  0.736092  0.990577  0.591610  1
  O  O52  1  0.406913  0.990156  0.591512  1
  O  O53  1  0.070836  0.991464  0.593401  1
  O  O54  1  0.947678  0.325265  0.656870  1
  O  O55  1  0.614877  0.318892  0.657201  1
  O  O56  1  0.822730  0.777472  0.518246  1
  O  O57  1  0.720227  0.552490  0.569895  1
  O  O58  1  0.287849  0.317256  0.653896  1
  O  O59  1  0.487050  0.777718  0.518186  1
  O  O60  1  0.386413  0.552684  0.570409  1
  O  O61  1  0.153311  0.783079  0.513848  1
  O  O62  1  0.055928  0.551519  0.570249  1
  O  O63  1  0.947152  0.445963  0.432000  1
  O  O64  1  0.844802  0.222148  0.481899  1
  O  O65  1  0.611469  0.446796  0.431098  1
  O  O66  1  0.514008  0.216522  0.485933  1
  O  O67  1  0.719834  0.672035  0.344377  1
  O  O68  1  0.280491  0.446016  0.430547  1
  O  O69  1  0.180621  0.221164  0.481959  1
  O  O70  1  0.379904  0.680524  0.346696  1
  O  O71  1  0.052159  0.679101  0.344065  1
  O  O72  1  0.931504  0.009700  0.407823  1
  O  O73  1  0.596953  0.008370  0.406168  1
  O  O74  1  0.260730  0.009150  0.407789  1
  O  O75  1  0.714164  0.219963  0.273408  1
  O  O76  1  0.382034  0.218358  0.273158  1
  O  O77  1  0.048739  0.217218  0.273992  1
  O  O78  1  0.866316  0.874687  0.043810  1
  O  O79  1  0.975785  0.515630  0.107023  1
  O  O80  1  0.534639  0.877776  0.042655  1
  O  O81  1  0.644913  0.513868  0.111925  1
  O  O82  1  0.197727  0.878648  0.045844  1
  O  O83  1  0.308690  0.511317  0.108657  1
  O  O84  1  0.956727  0.060463  0.149698  1
  O  O85  1  0.621272  0.061982  0.148514  1
  O  O86  1  0.888498  0.305169  0.059462  1
  O  O87  1  0.286379  0.060540  0.148384  1
  O  O88  1  0.553980  0.305356  0.062135  1
  O  O89  1  0.222158  0.304893  0.060312  1
