# generated using pymatgen
data_Li2Fe3OF6
_symmetry_space_group_name_H-M   'P 1'
_cell_length_a   5.10395112
_cell_length_b   10.66055608
_cell_length_c   11.91451867
_cell_angle_alpha   115.72949819
_cell_angle_beta   100.80904238
_cell_angle_gamma   90.40463964
_symmetry_Int_Tables_number   1
_chemical_formula_structural   Li2Fe3OF6
_chemical_formula_sum   'Li8 Fe12 O4 F24'
_cell_volume   570.76938777
_cell_formula_units_Z   4
loop_
 _symmetry_equiv_pos_site_id
 _symmetry_equiv_pos_as_xyz
  1  'x, y, z'
loop_
 _atom_site_type_symbol
 _atom_site_label
 _atom_site_symmetry_multiplicity
 _atom_site_fract_x
 _atom_site_fract_y
 _atom_site_fract_z
 _atom_site_occupancy
  Li  Li0  1  0.022058  0.256055  0.995773  1
  Li  Li1  1  0.826999  0.295772  0.770298  1
  Li  Li2  1  0.533436  0.024937  0.212661  1
  Li  Li3  1  0.794197  0.351925  0.499950  1
  Li  Li4  1  0.477875  0.752176  0.009022  1
  Li  Li5  1  0.471871  0.815998  0.798988  1
  Li  Li6  1  0.179733  0.527556  0.209583  1
  Li  Li7  1  0.179516  0.843675  0.493171  1
  Fe  Fe8  1  0.408456  0.115101  0.779871  1
  Fe  Fe9  1  0.719411  0.018811  0.501459  1
  Fe  Fe10  1  0.480697  0.471553  0.957277  1
  Fe  Fe11  1  0.172880  0.188479  0.350182  1
  Fe  Fe12  1  0.337766  0.301560  0.631006  1
  Fe  Fe13  1  0.621870  0.330250  0.201293  1
  Fe  Fe14  1  0.887520  0.621703  0.787662  1
  Fe  Fe15  1  0.325882  0.533200  0.523322  1
  Fe  Fe16  1  0.000573  0.983568  0.985164  1
  Fe  Fe17  1  0.687050  0.686252  0.337328  1
  Fe  Fe18  1  0.831910  0.810193  0.651945  1
  Fe  Fe19  1  0.055066  0.841723  0.225779  1
  O  O20  1  0.555302  0.148187  0.647773  1
  O  O21  1  0.423154  0.339848  0.488914  1
  O  O22  1  0.611842  0.669157  0.668656  1
  O  O23  1  0.893022  0.860363  0.371176  1
  F  F24  1  0.211570  0.101114  0.917195  1
  F  F25  1  0.712536  0.305740  0.920058  1
  F  F26  1  0.398229  0.012421  0.345675  1
  F  F27  1  0.195030  0.300450  0.797356  1
  F  F28  1  0.960691  0.186888  0.500832  1
  F  F29  1  0.381101  0.180259  0.200412  1
  F  F30  1  0.651630  0.460422  0.792108  1
  F  F31  1  0.843461  0.174671  0.075989  1
  F  F32  1  0.214796  0.597133  0.913001  1
  F  F33  1  0.072065  0.476112  0.642567  1
  F  F34  1  0.909352  0.342350  0.354102  1
  F  F35  1  0.721554  0.816945  0.940166  1
  F  F36  1  0.319105  0.393932  0.074599  1
  F  F37  1  0.452696  0.522630  0.343429  1
  F  F38  1  0.122900  0.811779  0.817855  1
  F  F39  1  0.829600  0.498780  0.210343  1
  F  F40  1  0.038545  0.675644  0.499557  1
  F  F41  1  0.314125  0.692736  0.219286  1
  F  F42  1  0.665274  0.970628  0.803870  1
  F  F43  1  0.540742  0.827441  0.504728  1
  F  F44  1  0.725798  0.662585  0.077662  1
  F  F45  1  0.070925  0.964402  0.646521  1
  F  F46  1  0.256280  0.888629  0.086975  1
  F  F47  1  0.893903  0.022467  0.217460  1
