# generated using pymatgen
data_ErSi2Rh3
_symmetry_space_group_name_H-M   'P 1'
_cell_length_a   6.61361681
_cell_length_b   6.61361681
_cell_length_c   6.61361681
_cell_angle_alpha   130.36450040
_cell_angle_beta   114.17226686
_cell_angle_gamma   86.72494178
_symmetry_Int_Tables_number   1
_chemical_formula_structural   ErSi2Rh3
_chemical_formula_sum   'Er2 Si4 Rh6'
_cell_volume   191.86746181
_cell_formula_units_Z   2
loop_
 _symmetry_equiv_pos_site_id
 _symmetry_equiv_pos_as_xyz
  1  'x, y, z'
loop_
 _atom_site_type_symbol
 _atom_site_label
 _atom_site_symmetry_multiplicity
 _atom_site_fract_x
 _atom_site_fract_y
 _atom_site_fract_z
 _atom_site_occupancy
  Er  Er0  1  0.750000  0.547825  0.297825  1
  Er  Er1  1  0.250000  0.452175  0.702175  1
  Si  Si2  1  0.921579  0.228483  0.806904  1
  Si  Si3  1  0.578421  0.885325  0.806904  1
  Si  Si4  1  0.078421  0.771517  0.193096  1
  Si  Si5  1  0.421579  0.114675  0.193096  1
  Rh  Rh6  1  0.713668  0.500000  0.713668  1
  Rh  Rh7  1  0.286332  0.500000  0.286332  1
  Rh  Rh8  1  0.500000  0.000000  0.500000  1
  Rh  Rh9  1  0.000000  0.000000  0.000000  1
  Rh  Rh10  1  0.213668  0.000000  0.713668  1
  Rh  Rh11  1  0.786332  0.000000  0.286332  1
