# generated using pymatgen
data_Li5Mn6(BO3)6
_symmetry_space_group_name_H-M   'P 1'
_cell_length_a   8.23440244
_cell_length_b   6.37353530
_cell_length_c   8.25139479
_cell_angle_alpha   90.00000000
_cell_angle_beta   119.30891072
_cell_angle_gamma   90.00000000
_symmetry_Int_Tables_number   1
_chemical_formula_structural   Li5Mn6(BO3)6
_chemical_formula_sum   'Li5 Mn6 B6 O18'
_cell_volume   377.61820648
_cell_formula_units_Z   1
loop_
 _symmetry_equiv_pos_site_id
 _symmetry_equiv_pos_as_xyz
  1  'x, y, z'
loop_
 _atom_site_type_symbol
 _atom_site_label
 _atom_site_symmetry_multiplicity
 _atom_site_fract_x
 _atom_site_fract_y
 _atom_site_fract_z
 _atom_site_occupancy
  Li  Li0  1  0.980560  0.000000  0.281761  1
  Li  Li1  1  0.983690  0.500000  0.283309  1
  Li  Li2  1  0.721989  0.500000  0.702204  1
  Li  Li3  1  0.301430  0.000000  0.021548  1
  Li  Li4  1  0.300106  0.500000  0.016800  1
  Mn  Mn5  1  0.368513  0.247737  0.381747  1
  Mn  Mn6  1  0.368513  0.752263  0.381747  1
  Mn  Mn7  1  0.632577  0.246904  0.978004  1
  Mn  Mn8  1  0.632577  0.753096  0.978004  1
  Mn  Mn9  1  0.000366  0.247962  0.638230  1
  Mn  Mn10  1  0.000366  0.752038  0.638230  1
  B  B11  1  0.666519  0.500000  0.328054  1
  B  B12  1  0.660855  0.000000  0.322970  1
  B  B13  1  0.332063  0.500000  0.665436  1
  B  B14  1  0.007294  0.743909  0.007690  1
  B  B15  1  0.007294  0.256091  0.007690  1
  B  B16  1  0.324556  0.000000  0.667249  1
  O  O17  1  0.923730  0.251005  0.120346  1
  O  O18  1  0.923730  0.748995  0.120346  1
  O  O19  1  0.859133  0.500000  0.439399  1
  O  O20  1  0.851950  0.000000  0.438832  1
  O  O21  1  0.586979  0.000000  0.131437  1
  O  O22  1  0.584329  0.500000  0.136171  1
  O  O23  1  0.898541  0.729896  0.818287  1
  O  O24  1  0.898541  0.270104  0.818287  1
  O  O25  1  0.557480  0.500000  0.415238  1
  O  O26  1  0.537856  0.000000  0.392154  1
  O  O27  1  0.201770  0.250712  0.091158  1
  O  O28  1  0.201770  0.749288  0.091158  1
  O  O29  1  0.525673  0.500000  0.775264  1
  O  O30  1  0.514617  0.000000  0.778183  1
  O  O31  1  0.255539  0.500000  0.471438  1
  O  O32  1  0.248364  0.000000  0.473175  1
  O  O33  1  0.217561  0.500000  0.743929  1
  O  O34  1  0.206787  0.000000  0.744475  1
