# generated using pymatgen
data_LiScVO4
_symmetry_space_group_name_H-M   'P 1'
_cell_length_a   6.08487002
_cell_length_b   6.08487002
_cell_length_c   6.08487002
_cell_angle_alpha   120.62542912
_cell_angle_beta   117.82329212
_cell_angle_gamma   91.36551134
_symmetry_Int_Tables_number   1
_chemical_formula_structural   LiScVO4
_chemical_formula_sum   'Li2 Sc2 V2 O8'
_cell_volume   161.00966657
_cell_formula_units_Z   2
loop_
 _symmetry_equiv_pos_site_id
 _symmetry_equiv_pos_as_xyz
  1  'x, y, z'
loop_
 _atom_site_type_symbol
 _atom_site_label
 _atom_site_symmetry_multiplicity
 _atom_site_fract_x
 _atom_site_fract_y
 _atom_site_fract_z
 _atom_site_occupancy
  Li  Li0  1  0.130638  0.880638  0.250000  1
  Li  Li1  1  0.869362  0.119362  0.750000  1
  Sc  Sc2  1  0.000000  0.500000  0.500000  1
  Sc  Sc3  1  0.500000  0.500000  0.000000  1
  V  V4  1  0.500000  0.500000  0.500000  1
  V  V5  1  0.500000  0.000000  0.000000  1
  O  O6  1  0.725247  0.709002  0.483755  1
  O  O7  1  0.274753  0.758508  0.983755  1
  O  O8  1  0.709712  0.745472  0.964240  1
  O  O9  1  0.281231  0.745472  0.535760  1
  O  O10  1  0.718769  0.254528  0.464240  1
  O  O11  1  0.290288  0.254528  0.035760  1
  O  O12  1  0.725247  0.241492  0.016245  1
  O  O13  1  0.274753  0.290998  0.516245  1
