# generated using pymatgen
data_IrRu3
_symmetry_space_group_name_H-M   'P 1'
_cell_length_a   5.47934961
_cell_length_b   5.47934961
_cell_length_c   4.32485824
_cell_angle_alpha   90.00000000
_cell_angle_beta   90.00000000
_cell_angle_gamma   120.00000000
_symmetry_Int_Tables_number   1
_chemical_formula_structural   IrRu3
_chemical_formula_sum   'Ir2 Ru6'
_cell_volume   112.45027768
_cell_formula_units_Z   2
loop_
 _symmetry_equiv_pos_site_id
 _symmetry_equiv_pos_as_xyz
  1  'x, y, z'
loop_
 _atom_site_type_symbol
 _atom_site_label
 _atom_site_symmetry_multiplicity
 _atom_site_fract_x
 _atom_site_fract_y
 _atom_site_fract_z
 _atom_site_occupancy
  Ir  Ir0  1  0.333333  0.666667  0.750000  1
  Ir  Ir1  1  0.666667  0.333333  0.250000  1
  Ru  Ru2  1  0.165927  0.331854  0.250000  1
  Ru  Ru3  1  0.668146  0.834073  0.250000  1
  Ru  Ru4  1  0.165927  0.834073  0.250000  1
  Ru  Ru5  1  0.834073  0.668146  0.750000  1
  Ru  Ru6  1  0.331854  0.165927  0.750000  1
  Ru  Ru7  1  0.834073  0.165927  0.750000  1
