# generated using pymatgen
data_TiV(PO4)2
_symmetry_space_group_name_H-M   'P 1'
_cell_length_a   8.60538860
_cell_length_b   8.60538860
_cell_length_c   8.60538860
_cell_angle_alpha   60.58517999
_cell_angle_beta   60.58517999
_cell_angle_gamma   60.58517999
_symmetry_Int_Tables_number   1
_chemical_formula_structural   TiV(PO4)2
_chemical_formula_sum   'Ti3 V3 P6 O24'
_cell_volume   456.56140745
_cell_formula_units_Z   3
loop_
 _symmetry_equiv_pos_site_id
 _symmetry_equiv_pos_as_xyz
  1  'x, y, z'
loop_
 _atom_site_type_symbol
 _atom_site_label
 _atom_site_symmetry_multiplicity
 _atom_site_fract_x
 _atom_site_fract_y
 _atom_site_fract_z
 _atom_site_occupancy
  Ti  Ti0  1  0.644975  0.644975  0.644975  1
  Ti  Ti1  1  0.856453  0.856453  0.856453  1
  Ti  Ti2  1  0.354909  0.354909  0.354909  1
  V  V3  1  0.999270  0.999270  0.999270  1
  V  V4  1  0.141673  0.141673  0.141673  1
  V  V5  1  0.501000  0.501000  0.501000  1
  P  P6  1  0.955938  0.249816  0.542714  1
  P  P7  1  0.542714  0.955938  0.249816  1
  P  P8  1  0.249816  0.542714  0.955938  1
  P  P9  1  0.749148  0.457155  0.043466  1
  P  P10  1  0.457155  0.043466  0.749148  1
  P  P11  1  0.043466  0.749148  0.457155  1
  O  O12  1  0.497293  0.118021  0.315277  1
  O  O13  1  0.315277  0.497293  0.118020  1
  O  O14  1  0.118021  0.315277  0.497293  1
  O  O15  1  0.941902  0.089598  0.739461  1
  O  O16  1  0.990339  0.186759  0.391390  1
  O  O17  1  0.761150  0.413131  0.565008  1
  O  O18  1  0.739461  0.941902  0.089598  1
  O  O19  1  0.565008  0.761150  0.413131  1
  O  O20  1  0.815542  0.616820  0.998126  1
  O  O21  1  0.413131  0.565008  0.761150  1
  O  O22  1  0.904083  0.263161  0.054775  1
  O  O23  1  0.616820  0.998126  0.815542  1
  O  O24  1  0.391390  0.990339  0.186759  1
  O  O25  1  0.089598  0.739461  0.941902  1
  O  O26  1  0.587213  0.444439  0.238275  1
  O  O27  1  0.186759  0.391390  0.990339  1
  O  O28  1  0.444439  0.238275  0.587213  1
  O  O29  1  0.263161  0.054775  0.904083  1
  O  O30  1  0.238275  0.587213  0.444439  1
  O  O31  1  0.998126  0.815542  0.616820  1
  O  O32  1  0.054775  0.904083  0.263161  1
  O  O33  1  0.884694  0.678916  0.508111  1
  O  O34  1  0.678916  0.508111  0.884694  1
  O  O35  1  0.508111  0.884694  0.678916  1
