# generated using pymatgen
data_H5NO5
_symmetry_space_group_name_H-M   'P 1'
_cell_length_a   6.32024953
_cell_length_b   7.65043279
_cell_length_c   16.85641632
_cell_angle_alpha   90.00000000
_cell_angle_beta   92.91345214
_cell_angle_gamma   90.00000000
_symmetry_Int_Tables_number   1
_chemical_formula_structural   H5NO5
_chemical_formula_sum   'H40 N8 O40'
_cell_volume   813.99880701
_cell_formula_units_Z   8
loop_
 _symmetry_equiv_pos_site_id
 _symmetry_equiv_pos_as_xyz
  1  'x, y, z'
loop_
 _atom_site_type_symbol
 _atom_site_label
 _atom_site_symmetry_multiplicity
 _atom_site_fract_x
 _atom_site_fract_y
 _atom_site_fract_z
 _atom_site_occupancy
  H  H0  1  0.193991  0.343386  0.526806  1
  H  H1  1  0.185747  0.140411  0.561637  1
  H  H2  1  0.701931  0.149749  0.541253  1
  H  H3  1  0.216791  0.310312  0.627157  1
  H  H4  1  0.680998  0.352201  0.571245  1
  H  H5  1  0.737933  0.198828  0.643627  1
  H  H6  1  0.443479  0.426924  0.706206  1
  H  H7  1  0.318185  0.268077  0.745058  1
  H  H8  1  0.821784  0.062716  0.739503  1
  H  H9  1  0.681815  0.768077  0.754942  1
  H  H10  1  0.806684  0.267462  0.756133  1
  H  H11  1  0.556521  0.926924  0.793794  1
  H  H12  1  0.193316  0.767462  0.743867  1
  H  H13  1  0.178216  0.562716  0.760497  1
  H  H14  1  0.783209  0.810312  0.872843  1
  H  H15  1  0.262067  0.698828  0.856373  1
  H  H16  1  0.814253  0.640411  0.938363  1
  H  H17  1  0.806009  0.843386  0.973194  1
  H  H18  1  0.319002  0.852201  0.928755  1
  H  H19  1  0.298069  0.649749  0.958747  1
  H  H20  1  0.701931  0.350251  0.041253  1
  H  H21  1  0.680998  0.147799  0.071245  1
  H  H22  1  0.193991  0.156614  0.026806  1
  H  H23  1  0.185747  0.359589  0.061637  1
  H  H24  1  0.737933  0.301172  0.143627  1
  H  H25  1  0.216791  0.189688  0.127157  1
  H  H26  1  0.821784  0.437284  0.239503  1
  H  H27  1  0.806684  0.232538  0.256133  1
  H  H28  1  0.443479  0.073076  0.206206  1
  H  H29  1  0.193316  0.732538  0.243867  1
  H  H30  1  0.318185  0.231923  0.245058  1
  H  H31  1  0.178216  0.937284  0.260497  1
  H  H32  1  0.681815  0.731923  0.254942  1
  H  H33  1  0.556521  0.573076  0.293794  1
  H  H34  1  0.262067  0.801172  0.356373  1
  H  H35  1  0.319002  0.647799  0.428755  1
  H  H36  1  0.783209  0.689688  0.372843  1
  H  H37  1  0.298069  0.850251  0.458747  1
  H  H38  1  0.814253  0.859589  0.438363  1
  H  H39  1  0.806009  0.656614  0.473194  1
  N  N40  1  0.236648  0.850836  0.601721  1
  N  N41  1  0.716333  0.655901  0.612668  1
  N  N42  1  0.763352  0.350836  0.898279  1
  N  N43  1  0.283667  0.155901  0.887332  1
  N  N44  1  0.716333  0.844099  0.112668  1
  N  N45  1  0.236648  0.649164  0.101721  1
  N  N46  1  0.283667  0.344099  0.387332  1
  N  N47  1  0.763352  0.149164  0.398279  1
  O  O48  1  0.234289  0.954275  0.539985  1
  O  O49  1  0.146373  0.270146  0.572814  1
  O  O50  1  0.239228  0.690250  0.591187  1
  O  O51  1  0.726842  0.551554  0.552211  1
  O  O52  1  0.652063  0.225242  0.585953  1
  O  O53  1  0.744812  0.814886  0.603524  1
  O  O54  1  0.236135  0.920890  0.669313  1
  O  O55  1  0.304438  0.369685  0.708190  1
  O  O56  1  0.678131  0.590310  0.679655  1
  O  O57  1  0.841455  0.178595  0.715276  1
  O  O58  1  0.695562  0.869685  0.791810  1
  O  O59  1  0.158545  0.678595  0.784724  1
  O  O60  1  0.763865  0.420890  0.830687  1
  O  O61  1  0.321869  0.090310  0.820345  1
  O  O62  1  0.760772  0.190250  0.908813  1
  O  O63  1  0.853627  0.770146  0.927186  1
  O  O64  1  0.255188  0.314886  0.896476  1
  O  O65  1  0.765711  0.454275  0.960015  1
  O  O66  1  0.347937  0.725242  0.914047  1
  O  O67  1  0.273158  0.051554  0.947789  1
  O  O68  1  0.726842  0.948446  0.052211  1
  O  O69  1  0.652063  0.274758  0.085953  1
  O  O70  1  0.234289  0.545725  0.039985  1
  O  O71  1  0.744812  0.685114  0.103524  1
  O  O72  1  0.146373  0.229854  0.072814  1
  O  O73  1  0.239228  0.809750  0.091187  1
  O  O74  1  0.678131  0.909690  0.179655  1
  O  O75  1  0.236135  0.579110  0.169313  1
  O  O76  1  0.841455  0.321405  0.215276  1
  O  O77  1  0.304438  0.130315  0.208190  1
  O  O78  1  0.158545  0.821405  0.284724  1
  O  O79  1  0.321869  0.409690  0.320345  1
  O  O80  1  0.695562  0.630315  0.291810  1
  O  O81  1  0.763865  0.079110  0.330687  1
  O  O82  1  0.255188  0.185114  0.396476  1
  O  O83  1  0.347937  0.774758  0.414047  1
  O  O84  1  0.273158  0.448446  0.447789  1
  O  O85  1  0.760772  0.309750  0.408813  1
  O  O86  1  0.853627  0.729854  0.427186  1
  O  O87  1  0.765711  0.045725  0.460015  1
