# generated using pymatgen
data_Li2Mn3VO8
_symmetry_space_group_name_H-M   'P 1'
_cell_length_a   8.35979002
_cell_length_b   8.25653109
_cell_length_c   8.77373909
_cell_angle_alpha   90.00000000
_cell_angle_beta   90.10089216
_cell_angle_gamma   90.00000000
_symmetry_Int_Tables_number   1
_chemical_formula_structural   Li2Mn3VO8
_chemical_formula_sum   'Li8 Mn12 V4 O32'
_cell_volume   605.58768028
_cell_formula_units_Z   4
loop_
 _symmetry_equiv_pos_site_id
 _symmetry_equiv_pos_as_xyz
  1  'x, y, z'
loop_
 _atom_site_type_symbol
 _atom_site_label
 _atom_site_symmetry_multiplicity
 _atom_site_fract_x
 _atom_site_fract_y
 _atom_site_fract_z
 _atom_site_occupancy
  Li  Li0  1  0.252356  0.998960  0.003889  1
  Li  Li1  1  0.001243  0.747206  0.247917  1
  Li  Li2  1  0.498548  0.255635  0.254781  1
  Li  Li3  1  0.754097  0.998022  0.496934  1
  Li  Li4  1  0.245903  0.498022  0.503066  1
  Li  Li5  1  0.501452  0.755635  0.745219  1
  Li  Li6  1  0.998757  0.247206  0.752083  1
  Li  Li7  1  0.747644  0.498960  0.996111  1
  Mn  Mn8  1  0.625318  0.869848  0.127782  1
  Mn  Mn9  1  0.375933  0.623362  0.126901  1
  Mn  Mn10  1  0.126961  0.373852  0.122502  1
  Mn  Mn11  1  0.627002  0.627931  0.381154  1
  Mn  Mn12  1  0.880359  0.378589  0.379354  1
  Mn  Mn13  1  0.125589  0.122560  0.367399  1
  Mn  Mn14  1  0.874411  0.622560  0.632601  1
  Mn  Mn15  1  0.119641  0.878589  0.620646  1
  Mn  Mn16  1  0.372998  0.127931  0.618846  1
  Mn  Mn17  1  0.873039  0.873852  0.877498  1
  Mn  Mn18  1  0.624067  0.123362  0.873099  1
  Mn  Mn19  1  0.374682  0.369848  0.872218  1
  V  V20  1  0.867550  0.126973  0.126005  1
  V  V21  1  0.373822  0.870182  0.374833  1
  V  V22  1  0.626178  0.370182  0.625167  1
  V  V23  1  0.132450  0.626973  0.873995  1
  O  O24  1  0.862807  0.882580  0.103747  1
  O  O25  1  0.649412  0.113178  0.132630  1
  O  O26  1  0.358394  0.388852  0.117917  1
  O  O27  1  0.390701  0.862410  0.143398  1
  O  O28  1  0.136326  0.608969  0.104905  1
  O  O29  1  0.609689  0.632678  0.138959  1
  O  O30  1  0.895850  0.361065  0.124416  1
  O  O31  1  0.111909  0.137110  0.141754  1
  O  O32  1  0.612743  0.859863  0.374695  1
  O  O33  1  0.378078  0.648804  0.379630  1
  O  O34  1  0.115920  0.362426  0.350399  1
  O  O35  1  0.643869  0.392225  0.394994  1
  O  O36  1  0.892279  0.138613  0.355331  1
  O  O37  1  0.874088  0.616530  0.409572  1
  O  O38  1  0.134074  0.892904  0.370920  1
  O  O39  1  0.356435  0.107598  0.374848  1
  O  O40  1  0.643565  0.607598  0.625152  1
  O  O41  1  0.865926  0.392904  0.629080  1
  O  O42  1  0.125912  0.116530  0.590428  1
  O  O43  1  0.107721  0.638613  0.644669  1
  O  O44  1  0.356131  0.892225  0.605006  1
  O  O45  1  0.884080  0.862426  0.649601  1
  O  O46  1  0.621922  0.148804  0.620370  1
  O  O47  1  0.387257  0.359863  0.625305  1
  O  O48  1  0.888091  0.637110  0.858246  1
  O  O49  1  0.104150  0.861065  0.875584  1
  O  O50  1  0.390311  0.132678  0.861041  1
  O  O51  1  0.863674  0.108969  0.895095  1
  O  O52  1  0.609299  0.362410  0.856602  1
  O  O53  1  0.641606  0.888852  0.882083  1
  O  O54  1  0.350588  0.613178  0.867370  1
  O  O55  1  0.137193  0.382580  0.896253  1
