# generated using pymatgen
data_Co6O7F5
_symmetry_space_group_name_H-M   'P 1'
_cell_length_a   4.63506482
_cell_length_b   5.48031420
_cell_length_c   7.46039173
_cell_angle_alpha   83.77057108
_cell_angle_beta   85.36716131
_cell_angle_gamma   83.52740598
_symmetry_Int_Tables_number   1
_chemical_formula_structural   Co6O7F5
_chemical_formula_sum   'Co6 O7 F5'
_cell_volume   186.73504968
_cell_formula_units_Z   1
loop_
 _symmetry_equiv_pos_site_id
 _symmetry_equiv_pos_as_xyz
  1  'x, y, z'
loop_
 _atom_site_type_symbol
 _atom_site_label
 _atom_site_symmetry_multiplicity
 _atom_site_fract_x
 _atom_site_fract_y
 _atom_site_fract_z
 _atom_site_occupancy
  Co  Co0  1  0.543154  0.532283  0.016322  1
  Co  Co1  1  0.499292  0.166155  0.330615  1
  Co  Co2  1  0.494449  0.828443  0.664063  1
  Co  Co3  1  0.001274  0.333549  0.669253  1
  Co  Co4  1  0.991164  0.667023  0.323730  1
  Co  Co5  1  0.992641  0.988462  0.001934  1
  O  O6  1  0.815075  0.713338  0.106761  1
  O  O7  1  0.691104  0.538008  0.773180  1
  O  O8  1  0.694341  0.204818  0.104447  1
  O  O9  1  0.690965  0.873012  0.430303  1
  O  O10  1  0.312133  0.128686  0.560572  1
  O  O11  1  0.305193  0.465494  0.229591  1
  O  O12  1  0.304872  0.787873  0.900245  1
  F  F13  1  0.810381  0.384718  0.427304  1
  F  F14  1  0.810324  0.026705  0.778411  1
  F  F15  1  0.180307  0.953418  0.228181  1
  F  F16  1  0.180682  0.271640  0.905828  1
  F  F17  1  0.182646  0.636377  0.549261  1
