# generated using pymatgen
data_Y11In9Ni4
_symmetry_space_group_name_H-M   'P 1'
_cell_length_a   13.10692666
_cell_length_b   13.10692666
_cell_length_c   3.65168621
_cell_angle_alpha   90.00000000
_cell_angle_beta   90.00000000
_cell_angle_gamma   113.14027466
_symmetry_Int_Tables_number   1
_chemical_formula_structural   Y11In9Ni4
_chemical_formula_sum   'Y11 In9 Ni4'
_cell_volume   576.85731885
_cell_formula_units_Z   1
loop_
 _symmetry_equiv_pos_site_id
 _symmetry_equiv_pos_as_xyz
  1  'x, y, z'
loop_
 _atom_site_type_symbol
 _atom_site_label
 _atom_site_symmetry_multiplicity
 _atom_site_fract_x
 _atom_site_fract_y
 _atom_site_fract_z
 _atom_site_occupancy
  Y  Y0  1  0.077999  0.415500  0.000000  1
  Y  Y1  1  0.922001  0.584500  0.000000  1
  Y  Y2  1  0.415500  0.077999  0.000000  1
  Y  Y3  1  0.584500  0.922001  0.000000  1
  Y  Y4  1  0.625227  0.374773  0.000000  1
  Y  Y5  1  0.374773  0.625227  0.000000  1
  Y  Y6  1  0.838264  0.161736  0.000000  1
  Y  Y7  1  0.161736  0.838264  0.000000  1
  Y  Y8  1  0.000000  0.000000  0.000000  1
  Y  Y9  1  0.312000  0.312000  0.000000  1
  Y  Y10  1  0.688000  0.688000  0.000000  1
  In  In11  1  0.840864  0.369363  0.500000  1
  In  In12  1  0.159136  0.630637  0.500000  1
  In  In13  1  0.369363  0.840864  0.500000  1
  In  In14  1  0.630637  0.159136  0.500000  1
  In  In15  1  0.076486  0.218881  0.500000  1
  In  In16  1  0.923514  0.781119  0.500000  1
  In  In17  1  0.218881  0.076486  0.500000  1
  In  In18  1  0.781119  0.923514  0.500000  1
  In  In19  1  0.500000  0.500000  0.500000  1
  Ni  Ni20  1  0.246943  0.448918  0.500000  1
  Ni  Ni21  1  0.753057  0.551082  0.500000  1
  Ni  Ni22  1  0.448918  0.246943  0.500000  1
  Ni  Ni23  1  0.551082  0.753057  0.500000  1
