# generated using pymatgen
data_Na8NbO6
_symmetry_space_group_name_H-M   'P 1'
_cell_length_a   6.52711846
_cell_length_b   6.52711846
_cell_length_c   13.25362048
_cell_angle_alpha   90.00000000
_cell_angle_beta   90.00000000
_cell_angle_gamma   120.00000000
_symmetry_Int_Tables_number   1
_chemical_formula_structural   Na8NbO6
_chemical_formula_sum   'Na16 Nb2 O12'
_cell_volume   488.99920249
_cell_formula_units_Z   2
loop_
 _symmetry_equiv_pos_site_id
 _symmetry_equiv_pos_as_xyz
  1  'x, y, z'
loop_
 _atom_site_type_symbol
 _atom_site_label
 _atom_site_symmetry_multiplicity
 _atom_site_fract_x
 _atom_site_fract_y
 _atom_site_fract_z
 _atom_site_occupancy
  Na  Na0  1  0.000000  0.697345  0.769235  1
  Na  Na1  1  0.000000  0.601593  0.128499  1
  Na  Na2  1  0.000000  0.398407  0.628499  1
  Na  Na3  1  0.000000  0.302655  0.269235  1
  Na  Na4  1  0.333333  0.666667  0.409347  1
  Na  Na5  1  0.333333  0.666667  0.909347  1
  Na  Na6  1  0.302655  0.302655  0.769235  1
  Na  Na7  1  0.398407  0.398407  0.128499  1
  Na  Na8  1  0.601593  0.601593  0.628499  1
  Na  Na9  1  0.302655  0.000000  0.269235  1
  Na  Na10  1  0.697345  0.697345  0.269235  1
  Na  Na11  1  0.398407  0.000000  0.628499  1
  Na  Na12  1  0.666667  0.333333  0.909347  1
  Na  Na13  1  0.666667  0.333333  0.409347  1
  Na  Na14  1  0.601593  0.000000  0.128499  1
  Na  Na15  1  0.697345  0.000000  0.769235  1
  Nb  Nb16  1  0.000000  0.000000  0.990664  1
  Nb  Nb17  1  0.000000  0.000000  0.490664  1
  O  O18  1  0.000000  0.719815  0.953194  1
  O  O19  1  0.000000  0.280185  0.453194  1
  O  O20  1  0.333333  0.666667  0.222690  1
  O  O21  1  0.000000  0.000000  0.134116  1
  O  O22  1  0.000000  0.000000  0.634116  1
  O  O23  1  0.333333  0.666667  0.722690  1
  O  O24  1  0.280185  0.280185  0.953194  1
  O  O25  1  0.280185  0.000000  0.453194  1
  O  O26  1  0.719815  0.719815  0.453194  1
  O  O27  1  0.666667  0.333333  0.722690  1
  O  O28  1  0.666667  0.333333  0.222690  1
  O  O29  1  0.719815  0.000000  0.953194  1
