# generated using pymatgen
data_LiV3OF11
_symmetry_space_group_name_H-M   'P 1'
_cell_length_a   5.41180847
_cell_length_b   5.24035345
_cell_length_c   15.37962901
_cell_angle_alpha   90.00000000
_cell_angle_beta   100.06828897
_cell_angle_gamma   90.00000000
_symmetry_Int_Tables_number   1
_chemical_formula_structural   LiV3OF11
_chemical_formula_sum   'Li2 V6 O2 F22'
_cell_volume   429.44616356
_cell_formula_units_Z   2
loop_
 _symmetry_equiv_pos_site_id
 _symmetry_equiv_pos_as_xyz
  1  'x, y, z'
loop_
 _atom_site_type_symbol
 _atom_site_label
 _atom_site_symmetry_multiplicity
 _atom_site_fract_x
 _atom_site_fract_y
 _atom_site_fract_z
 _atom_site_occupancy
  Li  Li0  1  0.966875  0.210040  0.770085  1
  Li  Li1  1  0.466875  0.789960  0.770085  1
  V  V2  1  0.851671  0.718608  0.659802  1
  V  V3  1  0.001321  0.249391  0.003187  1
  V  V4  1  0.666590  0.250199  0.333200  1
  V  V5  1  0.351671  0.281392  0.659802  1
  V  V6  1  0.501321  0.750609  0.003187  1
  V  V7  1  0.166590  0.749801  0.333200  1
  O  O8  1  0.645550  0.452114  0.690779  1
  O  O9  1  0.145550  0.547886  0.690779  1
  F  F10  1  0.980694  0.443576  0.356664  1
  F  F11  1  0.814217  0.556180  0.024095  1
  F  F12  1  0.851747  0.944506  0.309378  1
  F  F13  1  0.957822  0.335091  0.885054  1
  F  F14  1  0.625027  0.336991  0.220294  1
  F  F15  1  0.779232  0.671454  0.545135  1
  F  F16  1  0.704175  0.166642  0.445842  1
  F  F17  1  0.539281  0.840460  0.115545  1
  F  F18  1  0.849026  0.856691  0.775547  1
  F  F19  1  0.480694  0.556424  0.356664  1
  F  F20  1  0.314217  0.443820  0.024095  1
  F  F21  1  0.518717  0.952872  0.644173  1
  F  F22  1  0.687167  0.053300  0.976101  1
  F  F23  1  0.351747  0.055494  0.309378  1
  F  F24  1  0.457822  0.664909  0.885054  1
  F  F25  1  0.125027  0.663009  0.220294  1
  F  F26  1  0.279232  0.328546  0.545135  1
  F  F27  1  0.204175  0.833358  0.445842  1
  F  F28  1  0.039281  0.159540  0.115545  1
  F  F29  1  0.349026  0.143309  0.775547  1
  F  F30  1  0.018717  0.047128  0.644173  1
  F  F31  1  0.187167  0.946700  0.976101  1
