# generated using pymatgen
data_CoS2
_symmetry_space_group_name_H-M   'P 1'
_cell_length_a   5.44437742
_cell_length_b   5.53947722
_cell_length_c   5.56848400
_cell_angle_alpha   90.00000000
_cell_angle_beta   90.00000000
_cell_angle_gamma   90.00000000
_symmetry_Int_Tables_number   1
_chemical_formula_structural   CoS2
_chemical_formula_sum   'Co4 S8'
_cell_volume   167.93993536
_cell_formula_units_Z   4
loop_
 _symmetry_equiv_pos_site_id
 _symmetry_equiv_pos_as_xyz
  1  'x, y, z'
loop_
 _atom_site_type_symbol
 _atom_site_label
 _atom_site_symmetry_multiplicity
 _atom_site_fract_x
 _atom_site_fract_y
 _atom_site_fract_z
 _atom_site_occupancy
  Co  Co0  1  0.000000  0.000000  0.500000  1
  Co  Co1  1  0.000000  0.500000  0.000000  1
  Co  Co2  1  0.500000  0.500000  0.500000  1
  Co  Co3  1  0.500000  0.000000  0.000000  1
  S  S4  1  0.613147  0.111265  0.388045  1
  S  S5  1  0.613147  0.611265  0.111955  1
  S  S6  1  0.113147  0.888735  0.111955  1
  S  S7  1  0.886853  0.611265  0.611955  1
  S  S8  1  0.386853  0.388735  0.888045  1
  S  S9  1  0.886853  0.111265  0.888045  1
  S  S10  1  0.113147  0.388735  0.388045  1
  S  S11  1  0.386853  0.888735  0.611955  1
