# generated using pymatgen
data_Na4Ni2C4SO16
_symmetry_space_group_name_H-M   'P 1'
_cell_length_a   9.93315192
_cell_length_b   9.90239288
_cell_length_c   9.81714401
_cell_angle_alpha   60.49118367
_cell_angle_beta   60.17920249
_cell_angle_gamma   59.32961384
_symmetry_Int_Tables_number   1
_chemical_formula_structural   Na4Ni2C4SO16
_chemical_formula_sum   'Na8 Ni4 C8 S2 O32'
_cell_volume   682.65649843
_cell_formula_units_Z   2
loop_
 _symmetry_equiv_pos_site_id
 _symmetry_equiv_pos_as_xyz
  1  'x, y, z'
loop_
 _atom_site_type_symbol
 _atom_site_label
 _atom_site_symmetry_multiplicity
 _atom_site_fract_x
 _atom_site_fract_y
 _atom_site_fract_z
 _atom_site_occupancy
  Na  Na0  1  0.288845  0.711155  0.711155  1
  Na  Na1  1  0.710033  0.289967  0.710033  1
  Na  Na2  1  0.960033  0.539967  0.960033  1
  Na  Na3  1  0.538845  0.961155  0.961155  1
  Na  Na4  1  0.711155  0.288845  0.288845  1
  Na  Na5  1  0.289967  0.710033  0.289967  1
  Na  Na6  1  0.539967  0.960033  0.539967  1
  Na  Na7  1  0.961155  0.538845  0.538845  1
  Ni  Ni8  1  0.125000  0.125000  0.625000  1
  Ni  Ni9  1  0.125000  0.125000  0.125000  1
  Ni  Ni10  1  0.125000  0.625000  0.125000  1
  Ni  Ni11  1  0.625000  0.125000  0.125000  1
  C  C12  1  0.334704  0.337628  0.982037  1
  C  C13  1  0.912372  0.915296  0.904369  1
  C  C14  1  0.345631  0.982037  0.337628  1
  C  C15  1  0.982037  0.345631  0.334704  1
  C  C16  1  0.267963  0.904369  0.915296  1
  C  C17  1  0.904369  0.267963  0.912372  1
  C  C18  1  0.337628  0.334704  0.345631  1
  C  C19  1  0.915296  0.912372  0.267963  1
  S  S20  1  0.750000  0.750000  0.750000  1
  S  S21  1  0.500000  0.500000  0.500000  1
  O  O22  1  0.313022  0.481064  0.974933  1
  O  O23  1  0.935070  0.684976  0.689031  1
  O  O24  1  0.214520  0.314940  0.989994  1
  O  O25  1  0.935060  0.035480  0.769453  1
  O  O26  1  0.480547  0.989994  0.314940  1
  O  O27  1  0.028967  0.771282  0.924555  1
  O  O28  1  0.690923  0.689031  0.684976  1
  O  O29  1  0.684976  0.935070  0.690923  1
  O  O30  1  0.924555  0.275197  0.028967  1
  O  O31  1  0.989994  0.480547  0.214520  1
  O  O32  1  0.768936  0.936978  0.019019  1
  O  O33  1  0.689031  0.690923  0.935070  1
  O  O34  1  0.230981  0.974933  0.481064  1
  O  O35  1  0.974933  0.230981  0.313022  1
  O  O36  1  0.478718  0.221033  0.974803  1
  O  O37  1  0.275197  0.924555  0.771282  1
  O  O38  1  0.974803  0.325445  0.478718  1
  O  O39  1  0.771282  0.028967  0.275197  1
  O  O40  1  0.275067  0.019019  0.936978  1
  O  O41  1  0.019019  0.275067  0.768936  1
  O  O42  1  0.560969  0.559077  0.314930  1
  O  O43  1  0.481064  0.313022  0.230981  1
  O  O44  1  0.260006  0.769453  0.035480  1
  O  O45  1  0.325445  0.974803  0.221033  1
  O  O46  1  0.565024  0.314930  0.559077  1
  O  O47  1  0.559077  0.560969  0.565024  1
  O  O48  1  0.221033  0.478718  0.325445  1
  O  O49  1  0.769453  0.260006  0.935060  1
  O  O50  1  0.314940  0.214520  0.480547  1
  O  O51  1  0.035480  0.935060  0.260006  1
  O  O52  1  0.314930  0.565024  0.560969  1
  O  O53  1  0.936978  0.768936  0.275067  1
