# generated using pymatgen
data_Li11V8(PO4)12
_symmetry_space_group_name_H-M   'P 1'
_cell_length_a   8.72008018
_cell_length_b   8.78387889
_cell_length_c   12.25535474
_cell_angle_alpha   90.18092658
_cell_angle_beta   90.15872245
_cell_angle_gamma   90.30482948
_symmetry_Int_Tables_number   1
_chemical_formula_structural   Li11V8(PO4)12
_chemical_formula_sum   'Li11 V8 P12 O48'
_cell_volume   938.69111162
_cell_formula_units_Z   1
loop_
 _symmetry_equiv_pos_site_id
 _symmetry_equiv_pos_as_xyz
  1  'x, y, z'
loop_
 _atom_site_type_symbol
 _atom_site_label
 _atom_site_symmetry_multiplicity
 _atom_site_fract_x
 _atom_site_fract_y
 _atom_site_fract_z
 _atom_site_occupancy
  Li  Li0  1  0.218028  0.777632  0.181895  1
  Li  Li1  1  0.774232  0.275988  0.180532  1
  Li  Li2  1  0.055807  0.418202  0.289601  1
  Li  Li3  1  0.313904  0.266793  0.317494  1
  Li  Li4  1  0.715327  0.772945  0.317287  1
  Li  Li5  1  0.273240  0.228277  0.681589  1
  Li  Li6  1  0.685146  0.732173  0.684930  1
  Li  Li7  1  0.947987  0.586285  0.712959  1
  Li  Li8  1  0.553948  0.082398  0.785471  1
  Li  Li9  1  0.227214  0.729345  0.819093  1
  Li  Li10  1  0.813647  0.233097  0.815603  1
  V  V11  1  0.260081  0.461792  0.112596  1
  V  V12  1  0.746428  0.958052  0.114180  1
  V  V13  1  0.746737  0.461880  0.387519  1
  V  V14  1  0.244431  0.961276  0.385115  1
  V  V15  1  0.255095  0.540159  0.611927  1
  V  V16  1  0.759884  0.039102  0.609613  1
  V  V17  1  0.245337  0.040960  0.888201  1
  V  V18  1  0.742565  0.539117  0.888896  1
  P  P19  1  0.544384  0.246678  0.998631  1
  P  P20  1  0.459539  0.750415  0.000233  1
  P  P21  1  0.100591  0.105656  0.147813  1
  P  P22  1  0.897783  0.603800  0.145580  1
  P  P23  1  0.392639  0.605310  0.353521  1
  P  P24  1  0.609233  0.099454  0.351358  1
  P  P25  1  0.046420  0.253234  0.497897  1
  P  P26  1  0.956067  0.751216  0.501780  1
  P  P27  1  0.606794  0.392797  0.646976  1
  P  P28  1  0.390709  0.902475  0.645307  1
  P  P29  1  0.109498  0.403085  0.854294  1
  P  P30  1  0.892970  0.894373  0.855203  1
  O  O31  1  0.153413  0.071327  0.031574  1
  O  O32  1  0.844974  0.561120  0.031845  1
  O  O33  1  0.565785  0.860352  0.068125  1
  O  O34  1  0.446651  0.353338  0.067440  1
  O  O35  1  0.359612  0.667422  0.083760  1
  O  O36  1  0.646093  0.154846  0.080393  1
  O  O37  1  0.075544  0.601900  0.158512  1
  O  O38  1  0.920731  0.099725  0.153973  1
  O  O39  1  0.151520  0.268598  0.183797  1
  O  O40  1  0.837974  0.764990  0.178866  1
  O  O41  1  0.167780  0.985102  0.225368  1
  O  O42  1  0.840607  0.480306  0.228386  1
  O  O43  1  0.678383  0.980925  0.268151  1
  O  O44  1  0.313610  0.480951  0.278259  1
  O  O45  1  0.331123  0.762915  0.320986  1
  O  O46  1  0.661040  0.262962  0.319780  1
  O  O47  1  0.433108  0.090771  0.340847  1
  O  O48  1  0.568076  0.600755  0.337264  1
  O  O49  1  0.156901  0.173179  0.418226  1
  O  O50  1  0.851038  0.663247  0.419672  1
  O  O51  1  0.053043  0.862995  0.436638  1
  O  O52  1  0.950968  0.361956  0.425847  1
  O  O53  1  0.663933  0.055102  0.464552  1
  O  O54  1  0.351137  0.564200  0.471039  1
  O  O55  1  0.653644  0.427135  0.530542  1
  O  O56  1  0.341708  0.944418  0.532006  1
  O  O57  1  0.049426  0.641566  0.574663  1
  O  O58  1  0.950585  0.143321  0.567353  1
  O  O59  1  0.148041  0.343435  0.581062  1
  O  O60  1  0.845746  0.831721  0.583721  1
  O  O61  1  0.431730  0.395206  0.663001  1
  O  O62  1  0.568660  0.913877  0.662265  1
  O  O63  1  0.340990  0.740115  0.679241  1
  O  O64  1  0.664283  0.231310  0.683531  1
  O  O65  1  0.329543  0.023422  0.729925  1
  O  O66  1  0.686479  0.515173  0.722140  1
  O  O67  1  0.169096  0.525346  0.771646  1
  O  O68  1  0.814601  0.016986  0.782372  1
  O  O69  1  0.158689  0.241079  0.821371  1
  O  O70  1  0.835933  0.734020  0.817118  1
  O  O71  1  0.068836  0.897153  0.841700  1
  O  O72  1  0.931392  0.413470  0.839695  1
  O  O73  1  0.354067  0.840711  0.922930  1
  O  O74  1  0.656702  0.329330  0.921018  1
  O  O75  1  0.450370  0.139313  0.923850  1
  O  O76  1  0.553144  0.641138  0.929697  1
  O  O77  1  0.161477  0.445370  0.968455  1
  O  O78  1  0.846445  0.925030  0.974504  1
