# generated using pymatgen
data_Mn3(OF2)2
_symmetry_space_group_name_H-M   'P 1'
_cell_length_a   5.80148304
_cell_length_b   4.76196648
_cell_length_c   8.00042366
_cell_angle_alpha   90.00000000
_cell_angle_beta   93.56915290
_cell_angle_gamma   90.00000000
_symmetry_Int_Tables_number   1
_chemical_formula_structural   Mn3(OF2)2
_chemical_formula_sum   'Mn6 O4 F8'
_cell_volume   220.59474696
_cell_formula_units_Z   2
loop_
 _symmetry_equiv_pos_site_id
 _symmetry_equiv_pos_as_xyz
  1  'x, y, z'
loop_
 _atom_site_type_symbol
 _atom_site_label
 _atom_site_symmetry_multiplicity
 _atom_site_fract_x
 _atom_site_fract_y
 _atom_site_fract_z
 _atom_site_occupancy
  Mn  Mn0  1  0.571412  0.498181  0.351649  1
  Mn  Mn1  1  0.228578  0.490080  0.998916  1
  Mn  Mn2  1  0.904914  0.526341  0.673933  1
  Mn  Mn3  1  0.771422  0.990080  0.001084  1
  Mn  Mn4  1  0.428588  0.998181  0.648351  1
  Mn  Mn5  1  0.095086  0.026341  0.326067  1
  O  O6  1  0.043511  0.188482  0.105505  1
  O  O7  1  0.386315  0.193340  0.431056  1
  O  O8  1  0.956489  0.688482  0.894495  1
  O  O9  1  0.613685  0.693340  0.568944  1
  F  F10  1  0.714037  0.194269  0.771463  1
  F  F11  1  0.885686  0.309566  0.454107  1
  F  F12  1  0.545784  0.305100  0.104341  1
  F  F13  1  0.213331  0.294642  0.751262  1
  F  F14  1  0.285963  0.694269  0.228537  1
  F  F15  1  0.454216  0.805100  0.895659  1
  F  F16  1  0.114314  0.809566  0.545893  1
  F  F17  1  0.786669  0.794642  0.248738  1
