# generated using pymatgen
data_Na4VO4
_symmetry_space_group_name_H-M   'P 1'
_cell_length_a   5.80962367
_cell_length_b   5.83210189
_cell_length_c   8.70836583
_cell_angle_alpha   80.24076423
_cell_angle_beta   70.72907888
_cell_angle_gamma   68.47171601
_symmetry_Int_Tables_number   1
_chemical_formula_structural   Na4VO4
_chemical_formula_sum   'Na8 V2 O8'
_cell_volume   258.70215081
_cell_formula_units_Z   2
loop_
 _symmetry_equiv_pos_site_id
 _symmetry_equiv_pos_as_xyz
  1  'x, y, z'
loop_
 _atom_site_type_symbol
 _atom_site_label
 _atom_site_symmetry_multiplicity
 _atom_site_fract_x
 _atom_site_fract_y
 _atom_site_fract_z
 _atom_site_occupancy
  Na  Na0  1  0.478693  0.734507  0.566542  1
  Na  Na1  1  0.948288  0.238114  0.603250  1
  Na  Na2  1  0.521307  0.265493  0.433458  1
  Na  Na3  1  0.051712  0.761886  0.396750  1
  Na  Na4  1  0.599770  0.742438  0.180291  1
  Na  Na5  1  0.760698  0.247419  0.016828  1
  Na  Na6  1  0.239302  0.752581  0.983172  1
  Na  Na7  1  0.400230  0.257562  0.819709  1
  V  V8  1  0.155501  0.282283  0.242338  1
  V  V9  1  0.844499  0.717717  0.757662  1
  O  O10  1  0.701914  0.972790  0.622174  1
  O  O11  1  0.165068  0.520137  0.643611  1
  O  O12  1  0.834932  0.479863  0.356389  1
  O  O13  1  0.298086  0.027210  0.377826  1
  O  O14  1  0.361443  0.476001  0.199634  1
  O  O15  1  0.149916  0.141726  0.074113  1
  O  O16  1  0.638557  0.523999  0.800366  1
  O  O17  1  0.850084  0.858274  0.925887  1
