# generated using pymatgen
data_DyBr2
_symmetry_space_group_name_H-M   'P 1'
_cell_length_a   7.28517530
_cell_length_b   7.28517530
_cell_length_c   3.64635739
_cell_angle_alpha   90.00000000
_cell_angle_beta   90.00000000
_cell_angle_gamma   90.00000000
_symmetry_Int_Tables_number   1
_chemical_formula_structural   DyBr2
_chemical_formula_sum   'Dy2 Br4'
_cell_volume   193.52596683
_cell_formula_units_Z   2
loop_
 _symmetry_equiv_pos_site_id
 _symmetry_equiv_pos_as_xyz
  1  'x, y, z'
loop_
 _atom_site_type_symbol
 _atom_site_label
 _atom_site_symmetry_multiplicity
 _atom_site_fract_x
 _atom_site_fract_y
 _atom_site_fract_z
 _atom_site_occupancy
  Dy  Dy0  1  0.000000  0.000000  0.000000  1
  Dy  Dy1  1  0.500000  0.500000  0.500000  1
  Br  Br2  1  0.281896  0.281896  0.000000  1
  Br  Br3  1  0.718104  0.718104  0.000000  1
  Br  Br4  1  0.218104  0.781896  0.500000  1
  Br  Br5  1  0.781896  0.218104  0.500000  1
