# generated using pymatgen
data_Ca3Sn2S7
_symmetry_space_group_name_H-M   'P 1'
_cell_length_a   3.87676344
_cell_length_b   11.34247662
_cell_length_c   12.55014229
_cell_angle_alpha   90.00000000
_cell_angle_beta   90.00000000
_cell_angle_gamma   90.00000000
_symmetry_Int_Tables_number   1
_chemical_formula_structural   Ca3Sn2S7
_chemical_formula_sum   'Ca6 Sn4 S14'
_cell_volume   551.85609522
_cell_formula_units_Z   2
loop_
 _symmetry_equiv_pos_site_id
 _symmetry_equiv_pos_as_xyz
  1  'x, y, z'
loop_
 _atom_site_type_symbol
 _atom_site_label
 _atom_site_symmetry_multiplicity
 _atom_site_fract_x
 _atom_site_fract_y
 _atom_site_fract_z
 _atom_site_occupancy
  Ca  Ca0  1  0.000000  0.500000  0.000000  1
  Ca  Ca1  1  0.000000  0.000000  0.500000  1
  Ca  Ca2  1  0.000000  0.109810  0.146994  1
  Ca  Ca3  1  0.000000  0.890190  0.853006  1
  Ca  Ca4  1  0.000000  0.609810  0.353006  1
  Ca  Ca5  1  0.000000  0.390190  0.646994  1
  Sn  Sn6  1  0.500000  0.221582  0.890833  1
  Sn  Sn7  1  0.500000  0.778418  0.109167  1
  Sn  Sn8  1  0.500000  0.721582  0.609167  1
  Sn  Sn9  1  0.500000  0.278418  0.390833  1
  S  S10  1  0.000000  0.145953  0.789784  1
  S  S11  1  0.000000  0.854047  0.210216  1
  S  S12  1  0.000000  0.645953  0.710216  1
  S  S13  1  0.000000  0.354047  0.289784  1
  S  S14  1  0.500000  0.201962  0.568956  1
  S  S15  1  0.500000  0.798038  0.431044  1
  S  S16  1  0.500000  0.701962  0.931044  1
  S  S17  1  0.500000  0.298038  0.068956  1
  S  S18  1  0.500000  0.424622  0.818495  1
  S  S19  1  0.500000  0.575378  0.181505  1
  S  S20  1  0.500000  0.924622  0.681505  1
  S  S21  1  0.500000  0.075378  0.318495  1
  S  S22  1  0.500000  0.500000  0.500000  1
  S  S23  1  0.500000  0.000000  0.000000  1
