# generated using pymatgen
data_Li2FeSi3O8
_symmetry_space_group_name_H-M   'P 1'
_cell_length_a   6.51872545
_cell_length_b   6.63193032
_cell_length_c   9.60691297
_cell_angle_alpha   109.08696278
_cell_angle_beta   99.54021371
_cell_angle_gamma   100.91274450
_symmetry_Int_Tables_number   1
_chemical_formula_structural   Li2FeSi3O8
_chemical_formula_sum   'Li4 Fe2 Si6 O16'
_cell_volume   373.61553095
_cell_formula_units_Z   2
loop_
 _symmetry_equiv_pos_site_id
 _symmetry_equiv_pos_as_xyz
  1  'x, y, z'
loop_
 _atom_site_type_symbol
 _atom_site_label
 _atom_site_symmetry_multiplicity
 _atom_site_fract_x
 _atom_site_fract_y
 _atom_site_fract_z
 _atom_site_occupancy
  Li  Li0  1  0.189200  0.817380  0.285661  1
  Li  Li1  1  0.758502  0.124970  0.760177  1
  Li  Li2  1  0.358071  0.567692  0.874391  1
  Li  Li3  1  0.081200  0.861396  0.631749  1
  Fe  Fe4  1  0.566588  0.780852  0.585693  1
  Fe  Fe5  1  0.300822  0.083894  0.898525  1
  Si  Si6  1  0.117978  0.293528  0.101847  1
  Si  Si7  1  0.390566  0.240497  0.407585  1
  Si  Si8  1  0.787046  0.917256  0.093983  1
  Si  Si9  1  0.172091  0.393240  0.595339  1
  Si  Si10  1  0.782575  0.600448  0.406887  1
  Si  Si11  1  0.947220  0.711736  0.913431  1
  O  O12  1  0.978520  0.066189  0.181053  1
  O  O13  1  0.248205  0.387046  0.243762  1
  O  O14  1  0.287119  0.270680  0.016803  1
  O  O15  1  0.955473  0.791818  0.059128  1
  O  O16  1  0.289918  0.230424  0.548871  1
  O  O17  1  0.929543  0.446656  0.981150  1
  O  O18  1  0.390736  0.995889  0.408561  1
  O  O19  1  0.027659  0.540531  0.425150  1
  O  O20  1  0.616653  0.043419  0.945190  1
  O  O21  1  0.331168  0.571266  0.667057  1
  O  O22  1  0.631854  0.368538  0.445485  1
  O  O23  1  0.739643  0.809561  0.783396  1
  O  O24  1  0.679923  0.741474  0.228824  1
  O  O25  1  0.041798  0.228289  0.715906  1
  O  O26  1  0.812624  0.735072  0.521686  1
  O  O27  1  0.175273  0.792288  0.860679  1
