# generated using pymatgen
data_KSr2Cd2Sb3
_symmetry_space_group_name_H-M   'P 1'
_cell_length_a   4.90539853
_cell_length_b   12.96770507
_cell_length_c   16.57581682
_cell_angle_alpha   90.00000000
_cell_angle_beta   90.00000000
_cell_angle_gamma   90.00000000
_symmetry_Int_Tables_number   1
_chemical_formula_structural   KSr2Cd2Sb3
_chemical_formula_sum   'K4 Sr8 Cd8 Sb12'
_cell_volume   1054.41690436
_cell_formula_units_Z   4
loop_
 _symmetry_equiv_pos_site_id
 _symmetry_equiv_pos_as_xyz
  1  'x, y, z'
loop_
 _atom_site_type_symbol
 _atom_site_label
 _atom_site_symmetry_multiplicity
 _atom_site_fract_x
 _atom_site_fract_y
 _atom_site_fract_z
 _atom_site_occupancy
  K  K0  1  0.250000  0.593023  0.541989  1
  K  K1  1  0.750000  0.906977  0.041989  1
  K  K2  1  0.250000  0.093023  0.958011  1
  K  K3  1  0.750000  0.406977  0.458011  1
  Sr  Sr4  1  0.250000  0.636871  0.277683  1
  Sr  Sr5  1  0.750000  0.863129  0.777683  1
  Sr  Sr6  1  0.250000  0.136871  0.222317  1
  Sr  Sr7  1  0.750000  0.363129  0.722317  1
  Sr  Sr8  1  0.250000  0.898635  0.422689  1
  Sr  Sr9  1  0.750000  0.601365  0.922689  1
  Sr  Sr10  1  0.250000  0.398635  0.077311  1
  Sr  Sr11  1  0.750000  0.101365  0.577311  1
  Cd  Cd12  1  0.250000  0.699817  0.073015  1
  Cd  Cd13  1  0.750000  0.800183  0.573015  1
  Cd  Cd14  1  0.250000  0.199817  0.426985  1
  Cd  Cd15  1  0.750000  0.300183  0.926985  1
  Cd  Cd16  1  0.250000  0.629413  0.777375  1
  Cd  Cd17  1  0.750000  0.870587  0.277375  1
  Cd  Cd18  1  0.250000  0.129413  0.722625  1
  Cd  Cd19  1  0.750000  0.370587  0.222625  1
  Sb  Sb20  1  0.250000  0.878580  0.187982  1
  Sb  Sb21  1  0.750000  0.621420  0.687982  1
  Sb  Sb22  1  0.250000  0.378580  0.312018  1
  Sb  Sb23  1  0.750000  0.121420  0.812018  1
  Sb  Sb24  1  0.250000  0.288221  0.588922  1
  Sb  Sb25  1  0.750000  0.211779  0.088922  1
  Sb  Sb26  1  0.250000  0.788221  0.911078  1
  Sb  Sb27  1  0.750000  0.711779  0.411078  1
  Sb  Sb28  1  0.250000  0.920129  0.626781  1
  Sb  Sb29  1  0.750000  0.579871  0.126781  1
  Sb  Sb30  1  0.250000  0.420129  0.873219  1
  Sb  Sb31  1  0.750000  0.079871  0.373219  1
