# generated using pymatgen
data_Sr5Cd2Sb5F
_symmetry_space_group_name_H-M   'P 1'
_cell_length_a   11.47351022
_cell_length_b   11.47351022
_cell_length_c   14.90723429
_cell_angle_alpha   90.00000000
_cell_angle_beta   90.00000000
_cell_angle_gamma   155.84698809
_symmetry_Int_Tables_number   1
_chemical_formula_structural   Sr5Cd2Sb5F
_chemical_formula_sum   'Sr10 Cd4 Sb10 F2'
_cell_volume   802.96874897
_cell_formula_units_Z   2
loop_
 _symmetry_equiv_pos_site_id
 _symmetry_equiv_pos_as_xyz
  1  'x, y, z'
loop_
 _atom_site_type_symbol
 _atom_site_label
 _atom_site_symmetry_multiplicity
 _atom_site_fract_x
 _atom_site_fract_y
 _atom_site_fract_z
 _atom_site_occupancy
  Sr  Sr0  1  0.099929  0.900071  0.750000  1
  Sr  Sr1  1  0.900071  0.099929  0.250000  1
  Sr  Sr2  1  0.902231  0.097769  0.750000  1
  Sr  Sr3  1  0.097769  0.902231  0.250000  1
  Sr  Sr4  1  0.271247  0.728753  0.380186  1
  Sr  Sr5  1  0.728753  0.271247  0.880186  1
  Sr  Sr6  1  0.728753  0.271247  0.619814  1
  Sr  Sr7  1  0.271247  0.728753  0.119814  1
  Sr  Sr8  1  0.000000  0.000000  0.000000  1
  Sr  Sr9  1  0.000000  0.000000  0.500000  1
  Cd  Cd10  1  0.368441  0.631559  0.913736  1
  Cd  Cd11  1  0.631559  0.368441  0.413736  1
  Cd  Cd12  1  0.631559  0.368441  0.086264  1
  Cd  Cd13  1  0.368441  0.631559  0.586264  1
  Sb  Sb14  1  0.494965  0.505035  0.845787  1
  Sb  Sb15  1  0.505035  0.494965  0.345787  1
  Sb  Sb16  1  0.505035  0.494965  0.154213  1
  Sb  Sb17  1  0.494965  0.505035  0.654213  1
  Sb  Sb18  1  0.293284  0.706716  0.750000  1
  Sb  Sb19  1  0.706716  0.293284  0.250000  1
  Sb  Sb20  1  0.149066  0.850934  0.979803  1
  Sb  Sb21  1  0.850934  0.149066  0.479803  1
  Sb  Sb22  1  0.850934  0.149066  0.020197  1
  Sb  Sb23  1  0.149066  0.850934  0.520197  1
  F  F24  1  0.655763  0.344237  0.750000  1
  F  F25  1  0.344237  0.655763  0.250000  1
