# generated using pymatgen
data_Li3V3Cr2O10
_symmetry_space_group_name_H-M   'P 1'
_cell_length_a   5.11729824
_cell_length_b   5.16842747
_cell_length_c   7.85373651
_cell_angle_alpha   73.36795107
_cell_angle_beta   74.02936814
_cell_angle_gamma   79.63601460
_symmetry_Int_Tables_number   1
_chemical_formula_structural   Li3V3Cr2O10
_chemical_formula_sum   'Li3 V3 Cr2 O10'
_cell_volume   190.18933245
_cell_formula_units_Z   1
loop_
 _symmetry_equiv_pos_site_id
 _symmetry_equiv_pos_as_xyz
  1  'x, y, z'
loop_
 _atom_site_type_symbol
 _atom_site_label
 _atom_site_symmetry_multiplicity
 _atom_site_fract_x
 _atom_site_fract_y
 _atom_site_fract_z
 _atom_site_occupancy
  Li  Li0  1  0.505573  0.788215  0.425255  1
  Li  Li1  1  0.000000  0.500000  0.500000  1
  Li  Li2  1  0.494427  0.211785  0.574745  1
  V  V3  1  0.500000  0.000000  0.000000  1
  V  V4  1  0.995331  0.317682  0.882452  1
  V  V5  1  0.004669  0.682318  0.117548  1
  Cr  Cr6  1  0.013510  0.894346  0.690246  1
  Cr  Cr7  1  0.986490  0.105654  0.309754  1
  O  O8  1  0.232750  0.970824  0.863659  1
  O  O9  1  0.803520  0.673686  0.939986  1
  O  O10  1  0.779104  0.883697  0.532389  1
  O  O11  1  0.245849  0.778710  0.221465  1
  O  O12  1  0.205919  0.529054  0.672084  1
  O  O13  1  0.794081  0.470946  0.327916  1
  O  O14  1  0.754151  0.221290  0.778535  1
  O  O15  1  0.220896  0.116303  0.467611  1
  O  O16  1  0.196480  0.326314  0.060014  1
  O  O17  1  0.767250  0.029176  0.136341  1
