# generated using pymatgen
data_AlAs
_symmetry_space_group_name_H-M   'P 1'
_cell_length_a   4.04552947
_cell_length_b   4.04552947
_cell_length_c   6.64924147
_cell_angle_alpha   90.00000000
_cell_angle_beta   90.00000000
_cell_angle_gamma   120.00000000
_symmetry_Int_Tables_number   1
_chemical_formula_structural   AlAs
_chemical_formula_sum   'Al2 As2'
_cell_volume   94.24394905
_cell_formula_units_Z   2
loop_
 _symmetry_equiv_pos_site_id
 _symmetry_equiv_pos_as_xyz
  1  'x, y, z'
loop_
 _atom_site_type_symbol
 _atom_site_label
 _atom_site_symmetry_multiplicity
 _atom_site_fract_x
 _atom_site_fract_y
 _atom_site_fract_z
 _atom_site_occupancy
  Al  Al0  1  0.333333  0.666667  0.000760  1
  Al  Al1  1  0.666667  0.333333  0.500760  1
  As  As2  1  0.333333  0.666667  0.375240  1
  As  As3  1  0.666667  0.333333  0.875240  1
