# generated using pymatgen
data_Fe10O9F11
_symmetry_space_group_name_H-M   'P 1'
_cell_length_a   4.77003576
_cell_length_b   4.77003576
_cell_length_c   15.48464094
_cell_angle_alpha   89.74278958
_cell_angle_beta   90.25721042
_cell_angle_gamma   88.59777437
_symmetry_Int_Tables_number   1
_chemical_formula_structural   Fe10O9F11
_chemical_formula_sum   'Fe10 O9 F11'
_cell_volume   352.21298624
_cell_formula_units_Z   1
loop_
 _symmetry_equiv_pos_site_id
 _symmetry_equiv_pos_as_xyz
  1  'x, y, z'
loop_
 _atom_site_type_symbol
 _atom_site_label
 _atom_site_symmetry_multiplicity
 _atom_site_fract_x
 _atom_site_fract_y
 _atom_site_fract_z
 _atom_site_occupancy
  Fe  Fe0  1  0.999493  0.999493  0.000000  1
  Fe  Fe1  1  0.043221  0.975726  0.793024  1
  Fe  Fe2  1  0.988777  0.056310  0.598038  1
  Fe  Fe3  1  0.056310  0.988777  0.401962  1
  Fe  Fe4  1  0.975726  0.043221  0.206976  1
  Fe  Fe5  1  0.492211  0.515626  0.907183  1
  Fe  Fe6  1  0.481412  0.481412  0.500000  1
  Fe  Fe7  1  0.479307  0.472918  0.701386  1
  Fe  Fe8  1  0.472918  0.479307  0.298614  1
  Fe  Fe9  1  0.515626  0.492211  0.092817  1
  O  O10  1  0.189820  0.190668  0.698735  1
  O  O11  1  0.194349  0.194349  0.500000  1
  O  O12  1  0.190668  0.189820  0.301265  1
  O  O13  1  0.697271  0.308753  0.997472  1
  O  O14  1  0.678981  0.322947  0.600254  1
  O  O15  1  0.679585  0.319988  0.201105  1
  O  O16  1  0.308753  0.697271  0.002528  1
  O  O17  1  0.319988  0.679585  0.798895  1
  O  O18  1  0.322947  0.678981  0.399746  1
  F  F19  1  0.208721  0.192759  0.890810  1
  F  F20  1  0.192759  0.208721  0.109190  1
  F  F21  1  0.709366  0.286052  0.798757  1
  F  F22  1  0.704479  0.289148  0.400310  1
  F  F23  1  0.289148  0.704479  0.599690  1
  F  F24  1  0.286052  0.709366  0.201243  1
  F  F25  1  0.811167  0.797007  0.888306  1
  F  F26  1  0.807139  0.807139  0.500000  1
  F  F27  1  0.802530  0.804269  0.696881  1
  F  F28  1  0.797007  0.811167  0.111694  1
  F  F29  1  0.804269  0.802530  0.303119  1
