# generated using pymatgen
data_Li2MnFe(BO3)2
_symmetry_space_group_name_H-M   'P 1'
_cell_length_a   5.23351133
_cell_length_b   6.02858563
_cell_length_c   8.23262645
_cell_angle_alpha   103.34680896
_cell_angle_beta   90.60584473
_cell_angle_gamma   91.08399332
_symmetry_Int_Tables_number   1
_chemical_formula_structural   Li2MnFe(BO3)2
_chemical_formula_sum   'Li4 Mn2 Fe2 B4 O12'
_cell_volume   252.65430487
_cell_formula_units_Z   2
loop_
 _symmetry_equiv_pos_site_id
 _symmetry_equiv_pos_as_xyz
  1  'x, y, z'
loop_
 _atom_site_type_symbol
 _atom_site_label
 _atom_site_symmetry_multiplicity
 _atom_site_fract_x
 _atom_site_fract_y
 _atom_site_fract_z
 _atom_site_occupancy
  Li  Li0  1  0.404931  0.702467  0.028856  1
  Li  Li1  1  0.595069  0.297533  0.971144  1
  Li  Li2  1  0.903873  0.204073  0.530629  1
  Li  Li3  1  0.096127  0.795927  0.469371  1
  Mn  Mn4  1  0.081276  0.063245  0.829425  1
  Mn  Mn5  1  0.918724  0.936755  0.170575  1
  Fe  Fe6  1  0.585700  0.564101  0.332589  1
  Fe  Fe7  1  0.414300  0.435899  0.667411  1
  B  B8  1  0.922157  0.582227  0.841390  1
  B  B9  1  0.077843  0.417773  0.158610  1
  B  B10  1  0.421648  0.084463  0.345244  1
  B  B11  1  0.578352  0.915537  0.654756  1
  O  O12  1  0.662025  0.566885  0.863698  1
  O  O13  1  0.429667  0.735769  0.558744  1
  O  O14  1  0.953788  0.586201  0.273942  1
  O  O15  1  0.337975  0.433115  0.136302  1
  O  O16  1  0.932204  0.237366  0.060582  1
  O  O17  1  0.462946  0.085418  0.771745  1
  O  O18  1  0.046212  0.413799  0.726058  1
  O  O19  1  0.570333  0.264231  0.441256  1
  O  O20  1  0.162352  0.073555  0.372841  1
  O  O21  1  0.537054  0.914582  0.228255  1
  O  O22  1  0.067796  0.762634  0.939418  1
  O  O23  1  0.837648  0.926445  0.627159  1
