# generated using pymatgen
data_KH4O4F
_symmetry_space_group_name_H-M   'P 1'
_cell_length_a   6.21420162
_cell_length_b   12.19781915
_cell_length_c   13.02330289
_cell_angle_alpha   90.00000000
_cell_angle_beta   90.00000000
_cell_angle_gamma   90.00000000
_symmetry_Int_Tables_number   1
_chemical_formula_structural   KH4O4F
_chemical_formula_sum   'K8 H32 O32 F8'
_cell_volume   987.16255004
_cell_formula_units_Z   8
loop_
 _symmetry_equiv_pos_site_id
 _symmetry_equiv_pos_as_xyz
  1  'x, y, z'
loop_
 _atom_site_type_symbol
 _atom_site_label
 _atom_site_symmetry_multiplicity
 _atom_site_fract_x
 _atom_site_fract_y
 _atom_site_fract_z
 _atom_site_occupancy
  K  K0  1  0.231089  0.139847  0.102447  1
  K  K1  1  0.268911  0.639847  0.102447  1
  K  K2  1  0.731089  0.139847  0.397553  1
  K  K3  1  0.768911  0.639847  0.397553  1
  K  K4  1  0.231089  0.360153  0.602447  1
  K  K5  1  0.268911  0.860153  0.602447  1
  K  K6  1  0.768911  0.860153  0.897553  1
  K  K7  1  0.731089  0.360153  0.897553  1
  H  H8  1  0.067685  0.392157  0.195217  1
  H  H9  1  0.432315  0.892157  0.195217  1
  H  H10  1  0.683603  0.170843  0.179191  1
  H  H11  1  0.816397  0.670843  0.179191  1
  H  H12  1  0.798367  0.002473  0.246162  1
  H  H13  1  0.701633  0.502473  0.246162  1
  H  H14  1  0.224817  0.874230  0.292284  1
  H  H15  1  0.275183  0.374230  0.292284  1
  H  H16  1  0.724817  0.874230  0.207716  1
  H  H17  1  0.775183  0.374230  0.207716  1
  H  H18  1  0.201633  0.502473  0.253838  1
  H  H19  1  0.298367  0.002473  0.253838  1
  H  H20  1  0.183603  0.170843  0.320809  1
  H  H21  1  0.316397  0.670843  0.320809  1
  H  H22  1  0.567685  0.392157  0.304783  1
  H  H23  1  0.932315  0.892157  0.304783  1
  H  H24  1  0.067685  0.107843  0.695217  1
  H  H25  1  0.432315  0.607843  0.695217  1
  H  H26  1  0.683603  0.329157  0.679191  1
  H  H27  1  0.816397  0.829157  0.679191  1
  H  H28  1  0.701633  0.997527  0.746162  1
  H  H29  1  0.798367  0.497527  0.746162  1
  H  H30  1  0.275183  0.125770  0.792284  1
  H  H31  1  0.224817  0.625770  0.792284  1
  H  H32  1  0.724817  0.625770  0.707716  1
  H  H33  1  0.775183  0.125770  0.707716  1
  H  H34  1  0.201633  0.997527  0.753838  1
  H  H35  1  0.298367  0.497527  0.753838  1
  H  H36  1  0.183603  0.329157  0.820809  1
  H  H37  1  0.316397  0.829157  0.820809  1
  H  H38  1  0.567685  0.107843  0.804783  1
  H  H39  1  0.932315  0.607843  0.804783  1
  O  O40  1  0.742100  0.069784  0.021439  1
  O  O41  1  0.757900  0.569784  0.021439  1
  O  O42  1  0.337557  0.349561  0.018507  1
  O  O43  1  0.162443  0.849561  0.018507  1
  O  O44  1  0.202939  0.423875  0.227660  1
  O  O45  1  0.297061  0.923875  0.227660  1
  O  O46  1  0.613783  0.104003  0.203763  1
  O  O47  1  0.886217  0.604003  0.203763  1
  O  O48  1  0.113783  0.104003  0.296237  1
  O  O49  1  0.386217  0.604003  0.296237  1
  O  O50  1  0.702939  0.423875  0.272340  1
  O  O51  1  0.797061  0.923875  0.272340  1
  O  O52  1  0.837557  0.349561  0.481493  1
  O  O53  1  0.662443  0.849561  0.481493  1
  O  O54  1  0.257900  0.569784  0.478561  1
  O  O55  1  0.242100  0.069784  0.478561  1
  O  O56  1  0.742100  0.430216  0.521439  1
  O  O57  1  0.757900  0.930216  0.521439  1
  O  O58  1  0.337557  0.150439  0.518507  1
  O  O59  1  0.162443  0.650439  0.518507  1
  O  O60  1  0.202939  0.076125  0.727660  1
  O  O61  1  0.297061  0.576125  0.727660  1
  O  O62  1  0.613783  0.395997  0.703763  1
  O  O63  1  0.886217  0.895997  0.703763  1
  O  O64  1  0.386217  0.895997  0.796237  1
  O  O65  1  0.113783  0.395997  0.796237  1
  O  O66  1  0.702939  0.076125  0.772340  1
  O  O67  1  0.797061  0.576125  0.772340  1
  O  O68  1  0.662443  0.650439  0.981493  1
  O  O69  1  0.837557  0.150439  0.981493  1
  O  O70  1  0.257900  0.930216  0.978561  1
  O  O71  1  0.242100  0.430216  0.978561  1
  F  F72  1  0.883633  0.329349  0.140589  1
  F  F73  1  0.616367  0.829349  0.140589  1
  F  F74  1  0.383633  0.329349  0.359411  1
  F  F75  1  0.116367  0.829349  0.359411  1
  F  F76  1  0.883633  0.170651  0.640589  1
  F  F77  1  0.616367  0.670651  0.640589  1
  F  F78  1  0.116367  0.670651  0.859411  1
  F  F79  1  0.383633  0.170651  0.859411  1
