# generated using pymatgen
data_Ba(WO3)6
_symmetry_space_group_name_H-M   'P 1'
_cell_length_a   10.93342880
_cell_length_b   10.93342880
_cell_length_c   8.98804035
_cell_angle_alpha   89.98707600
_cell_angle_beta   90.01292400
_cell_angle_gamma   138.42194379
_symmetry_Int_Tables_number   1
_chemical_formula_structural   Ba(WO3)6
_chemical_formula_sum   'Ba2 W12 O36'
_cell_volume   713.03387481
_cell_formula_units_Z   2
loop_
 _symmetry_equiv_pos_site_id
 _symmetry_equiv_pos_as_xyz
  1  'x, y, z'
loop_
 _atom_site_type_symbol
 _atom_site_label
 _atom_site_symmetry_multiplicity
 _atom_site_fract_x
 _atom_site_fract_y
 _atom_site_fract_z
 _atom_site_occupancy
  Ba  Ba0  1  0.875782  0.124218  0.914620  1
  Ba  Ba1  1  0.124218  0.875782  0.085380  1
  W  W2  1  0.468719  0.032345  0.793653  1
  W  W3  1  0.284635  0.220863  0.793437  1
  W  W4  1  0.967655  0.531281  0.793653  1
  W  W5  1  0.779137  0.715365  0.793437  1
  W  W6  1  0.126662  0.376803  0.567026  1
  W  W7  1  0.623197  0.873338  0.567026  1
  W  W8  1  0.873338  0.623197  0.432974  1
  W  W9  1  0.376803  0.126662  0.432974  1
  W  W10  1  0.220863  0.284635  0.206563  1
  W  W11  1  0.531281  0.967655  0.206347  1
  W  W12  1  0.032345  0.468719  0.206347  1
  W  W13  1  0.715365  0.779137  0.206563  1
  O  O14  1  0.374246  0.124313  0.855128  1
  O  O15  1  0.875687  0.625754  0.855128  1
  O  O16  1  0.216525  0.783475  0.801565  1
  O  O17  1  0.719300  0.280700  0.797762  1
  O  O18  1  0.531517  0.468483  0.796135  1
  O  O19  1  0.032535  0.967465  0.803165  1
  O  O20  1  0.187918  0.303835  0.723511  1
  O  O21  1  0.696165  0.812082  0.723511  1
  O  O22  1  0.560433  0.944430  0.723570  1
  O  O23  1  0.055570  0.439567  0.723570  1
  O  O24  1  0.311339  0.189599  0.590541  1
  O  O25  1  0.874898  0.125102  0.575168  1
  O  O26  1  0.375119  0.624881  0.570803  1
  O  O27  1  0.438873  0.060660  0.590481  1
  O  O28  1  0.939340  0.561127  0.590481  1
  O  O29  1  0.810401  0.688661  0.590541  1
  O  O30  1  0.624881  0.375119  0.429197  1
  O  O31  1  0.125102  0.874898  0.424832  1
  O  O32  1  0.688661  0.810401  0.409459  1
  O  O33  1  0.561127  0.939340  0.409519  1
  O  O34  1  0.189599  0.311339  0.409459  1
  O  O35  1  0.060660  0.438873  0.409519  1
  O  O36  1  0.439567  0.055570  0.276430  1
  O  O37  1  0.303835  0.187918  0.276489  1
  O  O38  1  0.944430  0.560433  0.276430  1
  O  O39  1  0.812082  0.696165  0.276489  1
  O  O40  1  0.280700  0.719300  0.202238  1
  O  O41  1  0.967465  0.032535  0.196835  1
  O  O42  1  0.468483  0.531517  0.203865  1
  O  O43  1  0.783475  0.216525  0.198435  1
  O  O44  1  0.124313  0.374246  0.144872  1
  O  O45  1  0.625754  0.875687  0.144872  1
  O  O46  1  0.500000  0.000000  0.000000  1
  O  O47  1  0.753542  0.753542  0.000000  1
  O  O48  1  0.000000  0.500000  0.000000  1
  O  O49  1  0.246458  0.246458  0.000000  1
