# generated using pymatgen
data_FeO3
_symmetry_space_group_name_H-M   'P 1'
_cell_length_a   7.86556103
_cell_length_b   7.86556103
_cell_length_c   5.96375342
_cell_angle_alpha   69.25187452
_cell_angle_beta   110.74812548
_cell_angle_gamma   159.07248232
_symmetry_Int_Tables_number   1
_chemical_formula_structural   FeO3
_chemical_formula_sum   'Fe2 O6'
_cell_volume   122.93867936
_cell_formula_units_Z   2
loop_
 _symmetry_equiv_pos_site_id
 _symmetry_equiv_pos_as_xyz
  1  'x, y, z'
loop_
 _atom_site_type_symbol
 _atom_site_label
 _atom_site_symmetry_multiplicity
 _atom_site_fract_x
 _atom_site_fract_y
 _atom_site_fract_z
 _atom_site_occupancy
  Fe  Fe0  1  0.312501  0.687499  0.218297  1
  Fe  Fe1  1  0.687499  0.312501  0.781703  1
  O  O2  1  0.821260  0.178740  0.423331  1
  O  O3  1  0.174795  0.825205  0.985045  1
  O  O4  1  0.178740  0.821260  0.576669  1
  O  O5  1  0.518348  0.481652  0.610577  1
  O  O6  1  0.481652  0.518348  0.389423  1
  O  O7  1  0.825205  0.174795  0.014955  1
