# generated using pymatgen
data_YTa3O9
_symmetry_space_group_name_H-M   'P 1'
_cell_length_a   6.47977221
_cell_length_b   7.65623671
_cell_length_c   12.61622206
_cell_angle_alpha   90.00000000
_cell_angle_beta   90.00000000
_cell_angle_gamma   90.00000000
_symmetry_Int_Tables_number   1
_chemical_formula_structural   YTa3O9
_chemical_formula_sum   'Y4 Ta12 O36'
_cell_volume   625.89922758
_cell_formula_units_Z   4
loop_
 _symmetry_equiv_pos_site_id
 _symmetry_equiv_pos_as_xyz
  1  'x, y, z'
loop_
 _atom_site_type_symbol
 _atom_site_label
 _atom_site_symmetry_multiplicity
 _atom_site_fract_x
 _atom_site_fract_y
 _atom_site_fract_z
 _atom_site_occupancy
  Y  Y0  1  0.057681  0.250000  0.464444  1
  Y  Y1  1  0.442319  0.750000  0.964444  1
  Y  Y2  1  0.557681  0.250000  0.035556  1
  Y  Y3  1  0.942319  0.750000  0.535556  1
  Ta  Ta4  1  0.000000  0.000000  0.000000  1
  Ta  Ta5  1  0.000000  0.500000  0.000000  1
  Ta  Ta6  1  0.202640  0.002789  0.712610  1
  Ta  Ta7  1  0.202640  0.497211  0.712610  1
  Ta  Ta8  1  0.297360  0.502789  0.212610  1
  Ta  Ta9  1  0.297360  0.997211  0.212610  1
  Ta  Ta10  1  0.500000  0.000000  0.500000  1
  Ta  Ta11  1  0.500000  0.500000  0.500000  1
  Ta  Ta12  1  0.702640  0.002789  0.787390  1
  Ta  Ta13  1  0.702640  0.497211  0.787390  1
  Ta  Ta14  1  0.797360  0.502789  0.287390  1
  Ta  Ta15  1  0.797360  0.997211  0.287390  1
  O  O16  1  0.014084  0.043216  0.843001  1
  O  O17  1  0.014084  0.456784  0.843001  1
  O  O18  1  0.074027  0.750000  0.973448  1
  O  O19  1  0.106037  0.035596  0.331592  1
  O  O20  1  0.106037  0.464404  0.331592  1
  O  O21  1  0.162148  0.250000  0.671037  1
  O  O22  1  0.199577  0.750000  0.693766  1
  O  O23  1  0.204541  0.531191  0.536372  1
  O  O24  1  0.204541  0.968809  0.536372  1
  O  O25  1  0.295459  0.031191  0.036372  1
  O  O26  1  0.295459  0.468809  0.036372  1
  O  O27  1  0.300423  0.250000  0.193766  1
  O  O28  1  0.337852  0.750000  0.171037  1
  O  O29  1  0.393963  0.535596  0.831592  1
  O  O30  1  0.393963  0.964404  0.831592  1
  O  O31  1  0.425973  0.250000  0.473448  1
  O  O32  1  0.485916  0.543216  0.343001  1
  O  O33  1  0.485916  0.956784  0.343001  1
  O  O34  1  0.514084  0.043216  0.656999  1
  O  O35  1  0.514084  0.456784  0.656999  1
  O  O36  1  0.574027  0.750000  0.526552  1
  O  O37  1  0.606037  0.035596  0.168408  1
  O  O38  1  0.606037  0.464404  0.168408  1
  O  O39  1  0.662148  0.250000  0.828963  1
  O  O40  1  0.699577  0.750000  0.806234  1
  O  O41  1  0.704541  0.531191  0.963628  1
  O  O42  1  0.704541  0.968809  0.963628  1
  O  O43  1  0.795459  0.031191  0.463628  1
  O  O44  1  0.795459  0.468809  0.463628  1
  O  O45  1  0.800423  0.250000  0.306234  1
  O  O46  1  0.837852  0.750000  0.328963  1
  O  O47  1  0.893963  0.535596  0.668408  1
  O  O48  1  0.893963  0.964404  0.668408  1
  O  O49  1  0.925973  0.250000  0.026552  1
  O  O50  1  0.985916  0.543216  0.156999  1
  O  O51  1  0.985916  0.956784  0.156999  1
