# generated using pymatgen
data_NbCr3(PO4)6
_symmetry_space_group_name_H-M   'P 1'
_cell_length_a   8.84855817
_cell_length_b   8.84855817
_cell_length_c   8.84855817
_cell_angle_alpha   58.37572104
_cell_angle_beta   58.37572104
_cell_angle_gamma   58.37572104
_symmetry_Int_Tables_number   1
_chemical_formula_structural   NbCr3(PO4)6
_chemical_formula_sum   'Nb1 Cr3 P6 O24'
_cell_volume   471.67892948
_cell_formula_units_Z   1
loop_
 _symmetry_equiv_pos_site_id
 _symmetry_equiv_pos_as_xyz
  1  'x, y, z'
loop_
 _atom_site_type_symbol
 _atom_site_label
 _atom_site_symmetry_multiplicity
 _atom_site_fract_x
 _atom_site_fract_y
 _atom_site_fract_z
 _atom_site_occupancy
  Nb  Nb0  1  0.139439  0.139439  0.139439  1
  Cr  Cr1  1  0.856709  0.856709  0.856709  1
  Cr  Cr2  1  0.642781  0.642781  0.642781  1
  Cr  Cr3  1  0.357124  0.357124  0.357124  1
  P  P4  1  0.250144  0.539725  0.964025  1
  P  P5  1  0.964025  0.250144  0.539725  1
  P  P6  1  0.539725  0.964025  0.250144  1
  P  P7  1  0.473799  0.032697  0.740499  1
  P  P8  1  0.032697  0.740499  0.473799  1
  P  P9  1  0.740499  0.473799  0.032697  1
  O  O10  1  0.717318  0.495840  0.861761  1
  O  O11  1  0.495840  0.861761  0.717318  1
  O  O12  1  0.078141  0.720216  0.935332  1
  O  O13  1  0.861761  0.717318  0.495840  1
  O  O14  1  0.422465  0.565953  0.782852  1
  O  O15  1  0.221316  0.366508  0.993627  1
  O  O16  1  0.935332  0.078141  0.720216  1
  O  O17  1  0.782852  0.422465  0.565953  1
  O  O18  1  0.565953  0.782852  0.422464  1
  O  O19  1  0.638765  0.006678  0.776171  1
  O  O20  1  0.291123  0.059977  0.916703  1
  O  O21  1  0.006678  0.776171  0.638765  1
  O  O22  1  0.993627  0.221316  0.366508  1
  O  O23  1  0.720216  0.935332  0.078141  1
  O  O24  1  0.366508  0.993627  0.221316  1
  O  O25  1  0.442951  0.213707  0.571569  1
  O  O26  1  0.213707  0.571569  0.442951  1
  O  O27  1  0.059977  0.916703  0.291123  1
  O  O28  1  0.776171  0.638765  0.006678  1
  O  O29  1  0.571569  0.442951  0.213707  1
  O  O30  1  0.135376  0.278833  0.509879  1
  O  O31  1  0.916703  0.291123  0.059977  1
  O  O32  1  0.509879  0.135376  0.278833  1
  O  O33  1  0.278833  0.509879  0.135376  1
