# generated using pymatgen
data_FeH10N2Cl5O
_symmetry_space_group_name_H-M   'P 1'
_cell_length_a   7.17052371
_cell_length_b   9.95730153
_cell_length_c   13.92887920
_cell_angle_alpha   90.00000000
_cell_angle_beta   90.00000000
_cell_angle_gamma   90.00000000
_symmetry_Int_Tables_number   1
_chemical_formula_structural   FeH10N2Cl5O
_chemical_formula_sum   'Fe4 H40 N8 Cl20 O4'
_cell_volume   994.50897518
_cell_formula_units_Z   4
loop_
 _symmetry_equiv_pos_site_id
 _symmetry_equiv_pos_as_xyz
  1  'x, y, z'
loop_
 _atom_site_type_symbol
 _atom_site_label
 _atom_site_symmetry_multiplicity
 _atom_site_fract_x
 _atom_site_fract_y
 _atom_site_fract_z
 _atom_site_occupancy
  Fe  Fe0  1  0.812690  0.750000  0.119818  1
  Fe  Fe1  1  0.312690  0.250000  0.380182  1
  Fe  Fe2  1  0.687310  0.750000  0.619818  1
  Fe  Fe3  1  0.187310  0.250000  0.880182  1
  H  H4  1  0.948056  0.330607  0.029596  1
  H  H5  1  0.948056  0.169393  0.029596  1
  H  H6  1  0.346692  0.419413  0.098658  1
  H  H7  1  0.346692  0.080587  0.098658  1
  H  H8  1  0.372809  0.911826  0.105925  1
  H  H9  1  0.372809  0.588174  0.105925  1
  H  H10  1  0.182782  0.984526  0.154666  1
  H  H11  1  0.182782  0.515474  0.154666  1
  H  H12  1  0.391884  0.007032  0.205443  1
  H  H13  1  0.391884  0.492968  0.205443  1
  H  H14  1  0.891884  0.507032  0.294557  1
  H  H15  1  0.891884  0.992968  0.294557  1
  H  H16  1  0.682782  0.015474  0.345334  1
  H  H17  1  0.682782  0.484526  0.345334  1
  H  H18  1  0.872809  0.411826  0.394075  1
  H  H19  1  0.872809  0.088174  0.394075  1
  H  H20  1  0.846692  0.919413  0.401342  1
  H  H21  1  0.846692  0.580587  0.401342  1
  H  H22  1  0.448056  0.830607  0.470404  1
  H  H23  1  0.448056  0.669393  0.470404  1
  H  H24  1  0.551944  0.330607  0.529596  1
  H  H25  1  0.551944  0.169393  0.529596  1
  H  H26  1  0.153308  0.419413  0.598658  1
  H  H27  1  0.153308  0.080587  0.598658  1
  H  H28  1  0.127191  0.911826  0.605925  1
  H  H29  1  0.127191  0.588174  0.605925  1
  H  H30  1  0.317218  0.515474  0.654666  1
  H  H31  1  0.317218  0.984526  0.654666  1
  H  H32  1  0.108116  0.007032  0.705443  1
  H  H33  1  0.108116  0.492968  0.705443  1
  H  H34  1  0.608116  0.507032  0.794557  1
  H  H35  1  0.608116  0.992968  0.794557  1
  H  H36  1  0.817218  0.015474  0.845334  1
  H  H37  1  0.817218  0.484526  0.845334  1
  H  H38  1  0.627191  0.411826  0.894075  1
  H  H39  1  0.627191  0.088174  0.894075  1
  H  H40  1  0.653308  0.919413  0.901342  1
  H  H41  1  0.653308  0.580587  0.901342  1
  H  H42  1  0.051944  0.830607  0.970404  1
  H  H43  1  0.051944  0.669393  0.970404  1
  N  N44  1  0.323282  0.996288  0.140942  1
  N  N45  1  0.323282  0.503712  0.140942  1
  N  N46  1  0.823282  0.496288  0.359058  1
  N  N47  1  0.823282  0.003712  0.359058  1
  N  N48  1  0.176718  0.996288  0.640942  1
  N  N49  1  0.176718  0.503712  0.640942  1
  N  N50  1  0.676718  0.496288  0.859058  1
  N  N51  1  0.676718  0.003712  0.859058  1
  Cl  Cl52  1  0.544853  0.750000  0.005851  1
  Cl  Cl53  1  0.827405  0.991026  0.106218  1
  Cl  Cl54  1  0.827405  0.508974  0.106218  1
  Cl  Cl55  1  0.069568  0.750000  0.224821  1
  Cl  Cl56  1  0.601950  0.750000  0.246336  1
  Cl  Cl57  1  0.101950  0.250000  0.253664  1
  Cl  Cl58  1  0.569568  0.250000  0.275179  1
  Cl  Cl59  1  0.327405  0.491026  0.393782  1
  Cl  Cl60  1  0.327405  0.008974  0.393782  1
  Cl  Cl61  1  0.044853  0.250000  0.494149  1
  Cl  Cl62  1  0.955147  0.750000  0.505851  1
  Cl  Cl63  1  0.672595  0.991026  0.606218  1
  Cl  Cl64  1  0.672595  0.508974  0.606218  1
  Cl  Cl65  1  0.430432  0.750000  0.724821  1
  Cl  Cl66  1  0.898050  0.750000  0.746336  1
  Cl  Cl67  1  0.398050  0.250000  0.753664  1
  Cl  Cl68  1  0.930432  0.250000  0.775179  1
  Cl  Cl69  1  0.172595  0.491026  0.893782  1
  Cl  Cl70  1  0.172595  0.008974  0.893782  1
  Cl  Cl71  1  0.455147  0.250000  0.994149  1
  O  O72  1  0.006873  0.250000  0.001918  1
  O  O73  1  0.506873  0.750000  0.498082  1
  O  O74  1  0.493127  0.250000  0.501918  1
  O  O75  1  0.993127  0.750000  0.998082  1
