# generated using pymatgen
data_Li2Mn3(BO3)3
_symmetry_space_group_name_H-M   'P 1'
_cell_length_a   5.22572019
_cell_length_b   5.86676907
_cell_length_c   13.43652188
_cell_angle_alpha   96.58102991
_cell_angle_beta   91.28985925
_cell_angle_gamma   112.38580512
_symmetry_Int_Tables_number   1
_chemical_formula_structural   Li2Mn3(BO3)3
_chemical_formula_sum   'Li4 Mn6 B6 O18'
_cell_volume   377.40213597
_cell_formula_units_Z   2
loop_
 _symmetry_equiv_pos_site_id
 _symmetry_equiv_pos_as_xyz
  1  'x, y, z'
loop_
 _atom_site_type_symbol
 _atom_site_label
 _atom_site_symmetry_multiplicity
 _atom_site_fract_x
 _atom_site_fract_y
 _atom_site_fract_z
 _atom_site_occupancy
  Li  Li0  1  0.814816  0.469243  0.127803  1
  Li  Li1  1  0.475020  0.776617  0.460943  1
  Li  Li2  1  0.524980  0.223383  0.539057  1
  Li  Li3  1  0.185184  0.530757  0.872197  1
  Mn  Mn4  1  0.364109  0.510277  0.256084  1
  Mn  Mn5  1  0.012748  0.837208  0.591181  1
  Mn  Mn6  1  0.676638  0.155346  0.917037  1
  Mn  Mn7  1  0.323362  0.844654  0.082963  1
  Mn  Mn8  1  0.987252  0.162792  0.408819  1
  Mn  Mn9  1  0.635891  0.489723  0.743916  1
  B  B10  1  0.243716  0.291301  0.034185  1
  B  B11  1  0.907878  0.617413  0.361470  1
  B  B12  1  0.574283  0.952148  0.690485  1
  B  B13  1  0.425717  0.047852  0.309515  1
  B  B14  1  0.092122  0.382587  0.638530  1
  B  B15  1  0.756284  0.708699  0.965815  1
  O  O16  1  0.469489  0.220128  0.048853  1
  O  O17  1  0.136548  0.551942  0.379081  1
  O  O18  1  0.758490  0.539213  0.270644  1
  O  O19  1  0.436788  0.899288  0.597148  1
  O  O20  1  0.187248  0.438237  0.114575  1
  O  O21  1  0.844913  0.764846  0.438215  1
  O  O22  1  0.560038  0.136423  0.762944  1
  O  O23  1  0.755091  0.835633  0.712654  1
  O  O24  1  0.903135  0.761458  0.055669  1
  O  O25  1  0.096865  0.238542  0.944331  1
  O  O26  1  0.244909  0.164367  0.287346  1
  O  O27  1  0.439962  0.863577  0.237056  1
  O  O28  1  0.155087  0.235154  0.561785  1
  O  O29  1  0.812752  0.561763  0.885425  1
  O  O30  1  0.563212  0.100712  0.402852  1
  O  O31  1  0.241510  0.460787  0.729356  1
  O  O32  1  0.863452  0.448058  0.620919  1
  O  O33  1  0.530511  0.779872  0.951147  1
