# generated using pymatgen
data_Fe3(O2F)2
_symmetry_space_group_name_H-M   'P 1'
_cell_length_a   5.62529727
_cell_length_b   5.62529727
_cell_length_c   7.51987297
_cell_angle_alpha   69.64745869
_cell_angle_beta   110.35254131
_cell_angle_gamma   110.61914770
_symmetry_Int_Tables_number   1
_chemical_formula_structural   Fe3(O2F)2
_chemical_formula_sum   'Fe6 O8 F4'
_cell_volume   201.81054793
_cell_formula_units_Z   2
loop_
 _symmetry_equiv_pos_site_id
 _symmetry_equiv_pos_as_xyz
  1  'x, y, z'
loop_
 _atom_site_type_symbol
 _atom_site_label
 _atom_site_symmetry_multiplicity
 _atom_site_fract_x
 _atom_site_fract_y
 _atom_site_fract_z
 _atom_site_occupancy
  Fe  Fe0  1  0.835215  0.164785  0.328662  1
  Fe  Fe1  1  0.500000  0.500000  0.500000  1
  Fe  Fe2  1  0.815348  0.184652  0.837701  1
  Fe  Fe3  1  0.500000  0.500000  0.000000  1
  Fe  Fe4  1  0.164785  0.835215  0.671338  1
  Fe  Fe5  1  0.184652  0.815348  0.162299  1
  O  O6  1  0.806967  0.806967  0.500000  1
  O  O7  1  0.133294  0.475966  0.837384  1
  O  O8  1  0.405788  0.594212  0.216443  1
  O  O9  1  0.594212  0.405788  0.783557  1
  O  O10  1  0.524034  0.866706  0.837384  1
  O  O11  1  0.193033  0.193033  0.500000  1
  O  O12  1  0.866706  0.524034  0.162616  1
  O  O13  1  0.475966  0.133294  0.162616  1
  F  F14  1  0.054952  0.945048  0.867039  1
  F  F15  1  0.734894  0.265106  0.536161  1
  F  F16  1  0.945048  0.054952  0.132961  1
  F  F17  1  0.265106  0.734894  0.463839  1
