# generated using pymatgen
data_Li2MnVP2(HO5)2
_symmetry_space_group_name_H-M   'P 1'
_cell_length_a   5.43588240
_cell_length_b   10.17675714
_cell_length_c   10.31921937
_cell_angle_alpha   79.30605158
_cell_angle_beta   83.13669361
_cell_angle_gamma   79.28685922
_symmetry_Int_Tables_number   1
_chemical_formula_structural   Li2MnVP2(HO5)2
_chemical_formula_sum   'Li6 Mn3 V3 P6 H6 O30'
_cell_volume   549.02379265
_cell_formula_units_Z   3
loop_
 _symmetry_equiv_pos_site_id
 _symmetry_equiv_pos_as_xyz
  1  'x, y, z'
loop_
 _atom_site_type_symbol
 _atom_site_label
 _atom_site_symmetry_multiplicity
 _atom_site_fract_x
 _atom_site_fract_y
 _atom_site_fract_z
 _atom_site_occupancy
  Li  Li0  1  0.207697  0.191540  0.365662  1
  Li  Li1  1  0.125465  0.475416  0.300946  1
  Li  Li2  1  0.458370  0.143611  0.966174  1
  Li  Li3  1  0.542427  0.855924  0.034198  1
  Li  Li4  1  0.875935  0.524903  0.698639  1
  Li  Li5  1  0.790521  0.808855  0.633703  1
  Mn  Mn6  1  0.168036  0.832356  0.332559  1
  Mn  Mn7  1  0.333563  0.666432  0.667674  1
  Mn  Mn8  1  0.667105  0.333486  0.333090  1
  V  V9  1  0.500259  0.499965  0.000334  1
  V  V10  1  0.829805  0.168318  0.666141  1
  V  V11  1  0.999215  0.000178  0.000301  1
  P  P12  1  0.060805  0.303754  0.070819  1
  P  P13  1  0.271173  0.363244  0.595422  1
  P  P14  1  0.605460  0.028823  0.262675  1
  P  P15  1  0.391053  0.970531  0.738069  1
  P  P16  1  0.731423  0.637903  0.404241  1
  P  P17  1  0.938790  0.696118  0.928977  1
  H  H18  1  0.174149  0.766207  0.105425  1
  H  H19  1  0.163838  0.897119  0.563256  1
  H  H20  1  0.496968  0.564480  0.230269  1
  H  H21  1  0.503034  0.435990  0.770557  1
  H  H22  1  0.836488  0.102208  0.436357  1
  H  H23  1  0.825856  0.233320  0.894379  1
  O  O24  1  0.108336  0.148438  0.074640  1
  O  O25  1  0.014167  0.336365  0.213614  1
  O  O26  1  0.023070  0.318839  0.665298  1
  O  O27  1  0.166863  0.036293  0.654815  1
  O  O28  1  0.164405  0.630303  0.011379  1
  O  O29  1  0.310302  0.347935  0.000915  1
  O  O30  1  0.195576  0.854216  0.127247  1
  O  O31  1  0.336592  0.003906  0.881901  1
  O  O32  1  0.320053  0.329370  0.452982  1
  O  O33  1  0.224622  0.518792  0.591125  1
  O  O34  1  0.142264  0.808443  0.542323  1
  O  O35  1  0.551471  0.184530  0.257175  1
  O  O36  1  0.473788  0.476640  0.207502  1
  O  O37  1  0.497034  0.297872  0.678107  1
  O  O38  1  0.350198  0.984089  0.327268  1
  O  O39  1  0.640064  0.015131  0.670533  1
  O  O40  1  0.512063  0.700339  0.318980  1
  O  O41  1  0.526816  0.523706  0.792587  1
  O  O42  1  0.441026  0.814845  0.744048  1
  O  O43  1  0.860204  0.190152  0.458475  1
  O  O44  1  0.783453  0.481842  0.408753  1
  O  O45  1  0.681951  0.671105  0.546207  1
  O  O46  1  0.662682  0.996100  0.118787  1
  O  O47  1  0.805839  0.145901  0.871361  1
  O  O48  1  0.689268  0.652090  0.999306  1
  O  O49  1  0.835185  0.369641  0.988779  1
  O  O50  1  0.823468  0.965750  0.348223  1
  O  O51  1  0.986194  0.681824  0.336128  1
  O  O52  1  0.984573  0.663198  0.786763  1
  O  O53  1  0.891041  0.851666  0.924916  1
