# generated using pymatgen
data_LiMn3(P3O10)2
_symmetry_space_group_name_H-M   'P 1'
_cell_length_a   8.61391115
_cell_length_b   8.61391115
_cell_length_c   12.31518172
_cell_angle_alpha   90.00000000
_cell_angle_beta   90.00000000
_cell_angle_gamma   106.45724070
_symmetry_Int_Tables_number   1
_chemical_formula_structural   LiMn3(P3O10)2
_chemical_formula_sum   'Li2 Mn6 P12 O40'
_cell_volume   876.34363865
_cell_formula_units_Z   2
loop_
 _symmetry_equiv_pos_site_id
 _symmetry_equiv_pos_as_xyz
  1  'x, y, z'
loop_
 _atom_site_type_symbol
 _atom_site_label
 _atom_site_symmetry_multiplicity
 _atom_site_fract_x
 _atom_site_fract_y
 _atom_site_fract_z
 _atom_site_occupancy
  Li  Li0  1  0.104662  0.104662  0.000000  1
  Li  Li1  1  0.604662  0.604662  0.500000  1
  Mn  Mn2  1  0.380109  0.380109  0.000000  1
  Mn  Mn3  1  0.770477  0.323647  0.786884  1
  Mn  Mn4  1  0.323647  0.770477  0.213116  1
  Mn  Mn5  1  0.823647  0.270477  0.286884  1
  Mn  Mn6  1  0.270477  0.823647  0.713116  1
  Mn  Mn7  1  0.880109  0.880109  0.500000  1
  P  P8  1  0.137801  0.407836  0.696375  1
  P  P9  1  0.407836  0.137801  0.303625  1
  P  P10  1  0.220684  0.356364  0.218244  1
  P  P11  1  0.356364  0.220684  0.781756  1
  P  P12  1  0.757979  0.373794  0.053540  1
  P  P13  1  0.373794  0.757979  0.946460  1
  P  P14  1  0.873794  0.257979  0.553540  1
  P  P15  1  0.257979  0.873794  0.446460  1
  P  P16  1  0.907836  0.637801  0.196375  1
  P  P17  1  0.637801  0.907836  0.803625  1
  P  P18  1  0.856364  0.720684  0.718244  1
  P  P19  1  0.720684  0.856364  0.281756  1
  O  O20  1  0.014160  0.327315  0.779867  1
  O  O21  1  0.327315  0.014160  0.220133  1
  O  O22  1  0.347961  0.064034  0.724784  1
  O  O23  1  0.064034  0.347961  0.275216  1
  O  O24  1  0.058719  0.370739  0.576911  1
  O  O25  1  0.370739  0.058719  0.423089  1
  O  O26  1  0.258120  0.204926  0.889383  1
  O  O27  1  0.204926  0.258120  0.110617  1
  O  O28  1  0.318931  0.278461  0.305792  1
  O  O29  1  0.278461  0.318931  0.694208  1
  O  O30  1  0.085568  0.720095  0.201250  1
  O  O31  1  0.220095  0.585568  0.701250  1
  O  O32  1  0.720095  0.085568  0.798750  1
  O  O33  1  0.585568  0.220095  0.298750  1
  O  O34  1  0.326838  0.527209  0.192069  1
  O  O35  1  0.527209  0.326838  0.807932  1
  O  O36  1  0.027209  0.826838  0.692069  1
  O  O37  1  0.826838  0.027209  0.307931  1
  O  O38  1  0.372228  0.583264  0.929484  1
  O  O39  1  0.083264  0.872228  0.429484  1
  O  O40  1  0.872228  0.083264  0.570516  1
  O  O41  1  0.583264  0.372228  0.070516  1
  O  O42  1  0.311558  0.757543  0.368319  1
  O  O43  1  0.757543  0.311558  0.631681  1
  O  O44  1  0.257543  0.811558  0.868319  1
  O  O45  1  0.811558  0.257543  0.131681  1
  O  O46  1  0.306310  0.835323  0.558958  1
  O  O47  1  0.806310  0.335323  0.941042  1
  O  O48  1  0.835323  0.306310  0.441042  1
  O  O49  1  0.335323  0.806310  0.058958  1
  O  O50  1  0.827315  0.514160  0.279867  1
  O  O51  1  0.514160  0.827315  0.720133  1
  O  O52  1  0.847961  0.564034  0.775216  1
  O  O53  1  0.564034  0.847961  0.224784  1
  O  O54  1  0.558719  0.870739  0.923089  1
  O  O55  1  0.870739  0.558719  0.076911  1
  O  O56  1  0.704926  0.758120  0.389383  1
  O  O57  1  0.758120  0.704926  0.610617  1
  O  O58  1  0.778461  0.818931  0.805792  1
  O  O59  1  0.818931  0.778461  0.194208  1
