# generated using pymatgen
data_V2Si4O11
_symmetry_space_group_name_H-M   'P 1'
_cell_length_a   6.99337381
_cell_length_b   7.37980877
_cell_length_c   8.61795308
_cell_angle_alpha   99.35267325
_cell_angle_beta   101.28153020
_cell_angle_gamma   104.84766876
_symmetry_Int_Tables_number   1
_chemical_formula_structural   V2Si4O11
_chemical_formula_sum   'V4 Si8 O22'
_cell_volume   410.86818813
_cell_formula_units_Z   2
loop_
 _symmetry_equiv_pos_site_id
 _symmetry_equiv_pos_as_xyz
  1  'x, y, z'
loop_
 _atom_site_type_symbol
 _atom_site_label
 _atom_site_symmetry_multiplicity
 _atom_site_fract_x
 _atom_site_fract_y
 _atom_site_fract_z
 _atom_site_occupancy
  V  V0  1  0.115224  0.376786  0.613908  1
  V  V1  1  0.612684  0.375145  0.614820  1
  V  V2  1  0.387316  0.624855  0.385180  1
  V  V3  1  0.884776  0.623214  0.386092  1
  Si  Si4  1  0.769616  0.619747  0.977283  1
  Si  Si5  1  0.042448  0.782068  0.776729  1
  Si  Si6  1  0.480182  0.778839  0.779224  1
  Si  Si7  1  0.228251  0.018452  0.396052  1
  Si  Si8  1  0.771749  0.981548  0.603948  1
  Si  Si9  1  0.519818  0.221161  0.220776  1
  Si  Si10  1  0.957552  0.217932  0.223271  1
  Si  Si11  1  0.230384  0.380253  0.022717  1
  O  O12  1  0.188538  0.407542  0.839515  1
  O  O13  1  0.604057  0.741291  0.943154  1
  O  O14  1  0.695499  0.419133  0.839814  1
  O  O15  1  0.976751  0.755598  0.942479  1
  O  O16  1  0.285684  0.836610  0.815211  1
  O  O17  1  0.606696  0.957833  0.714926  1
  O  O18  1  0.412312  0.581640  0.626684  1
  O  O19  1  0.320227  0.202692  0.555156  1
  O  O20  1  0.820278  0.199570  0.570962  1
  O  O21  1  0.984302  0.958055  0.704532  1
  O  O22  1  0.931348  0.583100  0.626897  1
  O  O23  1  0.068652  0.416900  0.373103  1
  O  O24  1  0.015698  0.041945  0.295468  1
  O  O25  1  0.179722  0.800430  0.429038  1
  O  O26  1  0.679773  0.797308  0.444844  1
  O  O27  1  0.587688  0.418360  0.373316  1
  O  O28  1  0.393304  0.042167  0.285074  1
  O  O29  1  0.714316  0.163390  0.184789  1
  O  O30  1  0.023249  0.244402  0.057521  1
  O  O31  1  0.304501  0.580867  0.160186  1
  O  O32  1  0.395943  0.258709  0.056846  1
  O  O33  1  0.811462  0.592458  0.160485  1
