# generated using pymatgen
data_Li3Si2BiO7
_symmetry_space_group_name_H-M   'P 1'
_cell_length_a   5.10786149
_cell_length_b   9.44608805
_cell_length_c   13.28535437
_cell_angle_alpha   90.00000000
_cell_angle_beta   90.00000000
_cell_angle_gamma   90.00000000
_symmetry_Int_Tables_number   1
_chemical_formula_structural   Li3Si2BiO7
_chemical_formula_sum   'Li12 Si8 Bi4 O28'
_cell_volume   641.00917324
_cell_formula_units_Z   4
loop_
 _symmetry_equiv_pos_site_id
 _symmetry_equiv_pos_as_xyz
  1  'x, y, z'
loop_
 _atom_site_type_symbol
 _atom_site_label
 _atom_site_symmetry_multiplicity
 _atom_site_fract_x
 _atom_site_fract_y
 _atom_site_fract_z
 _atom_site_occupancy
  Li  Li0  1  0.044237  0.332203  0.092872  1
  Li  Li1  1  0.044237  0.332203  0.407128  1
  Li  Li2  1  0.051069  0.016116  0.250000  1
  Li  Li3  1  0.448931  0.516116  0.250000  1
  Li  Li4  1  0.455763  0.832203  0.092872  1
  Li  Li5  1  0.455763  0.832203  0.407128  1
  Li  Li6  1  0.544237  0.167797  0.592872  1
  Li  Li7  1  0.544237  0.167797  0.907128  1
  Li  Li8  1  0.551069  0.483884  0.750000  1
  Li  Li9  1  0.948931  0.983884  0.750000  1
  Li  Li10  1  0.955763  0.667797  0.907128  1
  Li  Li11  1  0.955763  0.667797  0.592872  1
  Si  Si12  1  0.026023  0.309825  0.640155  1
  Si  Si13  1  0.026023  0.309825  0.859845  1
  Si  Si14  1  0.473977  0.809825  0.640155  1
  Si  Si15  1  0.473977  0.809825  0.859845  1
  Si  Si16  1  0.526023  0.190175  0.140155  1
  Si  Si17  1  0.526023  0.190175  0.359845  1
  Si  Si18  1  0.973977  0.690175  0.140155  1
  Si  Si19  1  0.973977  0.690175  0.359845  1
  Bi  Bi20  1  0.000000  0.000000  0.000000  1
  Bi  Bi21  1  0.000000  0.000000  0.500000  1
  Bi  Bi22  1  0.500000  0.500000  0.500000  1
  Bi  Bi23  1  0.500000  0.500000  0.000000  1
  O  O24  1  0.075632  0.857003  0.141557  1
  O  O25  1  0.075632  0.857003  0.358443  1
  O  O26  1  0.074965  0.616789  0.250000  1
  O  O27  1  0.110936  0.614505  0.043313  1
  O  O28  1  0.110936  0.614505  0.456687  1
  O  O29  1  0.155631  0.831889  0.631183  1
  O  O30  1  0.155631  0.831889  0.868817  1
  O  O31  1  0.344369  0.331889  0.631183  1
  O  O32  1  0.344369  0.331889  0.868817  1
  O  O33  1  0.389064  0.114505  0.043313  1
  O  O34  1  0.389064  0.114505  0.456687  1
  O  O35  1  0.425035  0.116789  0.250000  1
  O  O36  1  0.424368  0.357003  0.141557  1
  O  O37  1  0.424368  0.357003  0.358443  1
  O  O38  1  0.575632  0.642997  0.641557  1
  O  O39  1  0.575632  0.642997  0.858443  1
  O  O40  1  0.574965  0.883211  0.750000  1
  O  O41  1  0.610936  0.885495  0.543313  1
  O  O42  1  0.610936  0.885495  0.956687  1
  O  O43  1  0.655631  0.668111  0.131183  1
  O  O44  1  0.655631  0.668111  0.368817  1
  O  O45  1  0.844369  0.168111  0.368817  1
  O  O46  1  0.844369  0.168111  0.131183  1
  O  O47  1  0.889064  0.385495  0.543313  1
  O  O48  1  0.889064  0.385495  0.956687  1
  O  O49  1  0.925035  0.383211  0.750000  1
  O  O50  1  0.924368  0.142997  0.641557  1
  O  O51  1  0.924368  0.142997  0.858443  1
