# generated using pymatgen
data_BiTeO4
_symmetry_space_group_name_H-M   'P 1'
_cell_length_a   7.06812750
_cell_length_b   7.06812750
_cell_length_c   10.45194322
_cell_angle_alpha   66.92773080
_cell_angle_beta   113.07226920
_cell_angle_gamma   132.83355731
_symmetry_Int_Tables_number   1
_chemical_formula_structural   BiTeO4
_chemical_formula_sum   'Bi4 Te4 O16'
_cell_volume   346.14505797
_cell_formula_units_Z   4
loop_
 _symmetry_equiv_pos_site_id
 _symmetry_equiv_pos_as_xyz
  1  'x, y, z'
loop_
 _atom_site_type_symbol
 _atom_site_label
 _atom_site_symmetry_multiplicity
 _atom_site_fract_x
 _atom_site_fract_y
 _atom_site_fract_z
 _atom_site_occupancy
  Bi  Bi0  1  0.770422  0.318984  0.845551  1
  Bi  Bi1  1  0.959421  0.958972  0.257487  1
  Bi  Bi2  1  0.041028  0.040579  0.757487  1
  Bi  Bi3  1  0.681016  0.229578  0.345551  1
  Te  Te4  1  0.350768  0.806814  0.615563  1
  Te  Te5  1  0.508399  0.505942  0.496714  1
  Te  Te6  1  0.193186  0.649232  0.115563  1
  Te  Te7  1  0.494058  0.491601  0.996714  1
  O  O8  1  0.144425  0.343835  0.880992  1
  O  O9  1  0.282050  0.914270  0.408489  1
  O  O10  1  0.354456  0.206293  0.158207  1
  O  O11  1  0.728145  0.521302  0.417745  1
  O  O12  1  0.361547  0.156453  0.617292  1
  O  O13  1  0.085730  0.717950  0.908489  1
  O  O14  1  0.490477  0.705416  0.080971  1
  O  O15  1  0.793707  0.645544  0.658207  1
  O  O16  1  0.207035  0.359185  0.343067  1
  O  O17  1  0.478698  0.271855  0.917745  1
  O  O18  1  0.919721  0.288560  0.096320  1
  O  O19  1  0.656165  0.855575  0.380992  1
  O  O20  1  0.294584  0.509523  0.580971  1
  O  O21  1  0.640815  0.792965  0.843067  1
  O  O22  1  0.711440  0.080279  0.596320  1
  O  O23  1  0.843547  0.638453  0.117292  1
