# generated using pymatgen
data_ReRu3
_symmetry_space_group_name_H-M   'P 1'
_cell_length_a   5.48822189
_cell_length_b   5.48822189
_cell_length_c   4.34139581
_cell_angle_alpha   90.00000000
_cell_angle_beta   90.00000000
_cell_angle_gamma   120.00000000
_symmetry_Int_Tables_number   1
_chemical_formula_structural   ReRu3
_chemical_formula_sum   'Re2 Ru6'
_cell_volume   113.24612179
_cell_formula_units_Z   2
loop_
 _symmetry_equiv_pos_site_id
 _symmetry_equiv_pos_as_xyz
  1  'x, y, z'
loop_
 _atom_site_type_symbol
 _atom_site_label
 _atom_site_symmetry_multiplicity
 _atom_site_fract_x
 _atom_site_fract_y
 _atom_site_fract_z
 _atom_site_occupancy
  Re  Re0  1  0.333333  0.666667  0.750000  1
  Re  Re1  1  0.666667  0.333333  0.250000  1
  Ru  Ru2  1  0.167563  0.335126  0.250000  1
  Ru  Ru3  1  0.664874  0.832437  0.250000  1
  Ru  Ru4  1  0.167563  0.832437  0.250000  1
  Ru  Ru5  1  0.832437  0.664874  0.750000  1
  Ru  Ru6  1  0.335126  0.167563  0.750000  1
  Ru  Ru7  1  0.832437  0.167563  0.750000  1
