# generated using pymatgen
data_Cr4OF11
_symmetry_space_group_name_H-M   'P 1'
_cell_length_a   5.09551058
_cell_length_b   5.34210761
_cell_length_c   16.93325865
_cell_angle_alpha   88.26832048
_cell_angle_beta   98.30173726
_cell_angle_gamma   118.29011479
_symmetry_Int_Tables_number   1
_chemical_formula_structural   Cr4OF11
_chemical_formula_sum   'Cr8 O2 F22'
_cell_volume   401.24219795
_cell_formula_units_Z   2
loop_
 _symmetry_equiv_pos_site_id
 _symmetry_equiv_pos_as_xyz
  1  'x, y, z'
loop_
 _atom_site_type_symbol
 _atom_site_label
 _atom_site_symmetry_multiplicity
 _atom_site_fract_x
 _atom_site_fract_y
 _atom_site_fract_z
 _atom_site_occupancy
  Cr  Cr0  1  0.254921  0.642798  0.871354  1
  Cr  Cr1  1  0.243414  0.134721  0.379113  1
  Cr  Cr2  1  0.498345  0.753734  0.250309  1
  Cr  Cr3  1  0.491036  0.231565  0.753515  1
  Cr  Cr4  1  0.750312  0.867695  0.624695  1
  Cr  Cr5  1  0.750434  0.377461  0.124993  1
  Cr  Cr6  1  0.007872  0.487390  0.497190  1
  Cr  Cr7  1  0.002995  0.004895  0.999299  1
  O  O8  1  0.253354  0.937555  0.812652  1
  O  O9  1  0.185748  0.281612  0.468042  1
  F  F10  1  0.186997  0.782960  0.967166  1
  F  F11  1  0.245295  0.812988  0.437192  1
  F  F12  1  0.242538  0.318360  0.935610  1
  F  F13  1  0.315806  0.971096  0.285349  1
  F  F14  1  0.314988  0.657467  0.591247  1
  F  F15  1  0.316325  0.467425  0.782155  1
  F  F16  1  0.186125  0.593794  0.157274  1
  F  F17  1  0.186214  0.090524  0.658290  1
  F  F18  1  0.686905  0.842201  0.906632  1
  F  F19  1  0.248820  0.437316  0.312327  1
  F  F20  1  0.737699  0.555557  0.689036  1
  F  F21  1  0.315148  0.158129  0.092558  1
  F  F22  1  0.814162  0.907130  0.343303  1
  F  F23  1  0.816730  0.408084  0.842396  1
  F  F24  1  0.820478  0.712138  0.532088  1
  F  F25  1  0.684397  0.533256  0.218174  1
  F  F26  1  0.682813  0.342734  0.406832  1
  F  F27  1  0.687750  0.030636  0.717900  1
  F  F28  1  0.754778  0.690194  0.062184  1
  F  F29  1  0.756499  0.185929  0.562079  1
  F  F30  1  0.747566  0.063472  0.187363  1
  F  F31  1  0.813536  0.219182  0.031683  1
