# generated using pymatgen
data_Dy5P12Ru19
_symmetry_space_group_name_H-M   'P 1'
_cell_length_a   12.53314566
_cell_length_b   12.53314566
_cell_length_c   3.98472679
_cell_angle_alpha   90.00000000
_cell_angle_beta   90.00000000
_cell_angle_gamma   120.00000000
_symmetry_Int_Tables_number   1
_chemical_formula_structural   Dy5P12Ru19
_chemical_formula_sum   'Dy5 P12 Ru19'
_cell_volume   542.06248966
_cell_formula_units_Z   1
loop_
 _symmetry_equiv_pos_site_id
 _symmetry_equiv_pos_as_xyz
  1  'x, y, z'
loop_
 _atom_site_type_symbol
 _atom_site_label
 _atom_site_symmetry_multiplicity
 _atom_site_fract_x
 _atom_site_fract_y
 _atom_site_fract_z
 _atom_site_occupancy
  Dy  Dy0  1  0.666667  0.333333  0.000000  1
  Dy  Dy1  1  0.333333  0.666667  0.000000  1
  Dy  Dy2  1  0.000000  0.183835  0.500000  1
  Dy  Dy3  1  0.816165  0.816165  0.500000  1
  Dy  Dy4  1  0.183835  0.000000  0.500000  1
  P  P5  1  0.000000  0.373222  0.000000  1
  P  P6  1  0.626778  0.626778  0.000000  1
  P  P7  1  0.373222  0.000000  0.000000  1
  P  P8  1  0.477234  0.305769  0.500000  1
  P  P9  1  0.694231  0.171464  0.500000  1
  P  P10  1  0.171464  0.694231  0.500000  1
  P  P11  1  0.305769  0.477234  0.500000  1
  P  P12  1  0.000000  0.815458  0.000000  1
  P  P13  1  0.184542  0.184542  0.000000  1
  P  P14  1  0.815458  0.000000  0.000000  1
  P  P15  1  0.828536  0.522766  0.500000  1
  P  P16  1  0.522766  0.828536  0.500000  1
  Ru  Ru17  1  0.191688  0.376787  0.000000  1
  Ru  Ru18  1  0.623213  0.814901  0.000000  1
  Ru  Ru19  1  0.814901  0.623213  0.000000  1
  Ru  Ru20  1  0.185099  0.808312  0.000000  1
  Ru  Ru21  1  0.376787  0.191688  0.000000  1
  Ru  Ru22  1  0.492433  0.126133  0.500000  1
  Ru  Ru23  1  0.633700  0.507567  0.500000  1
  Ru  Ru24  1  0.873867  0.366300  0.500000  1
  Ru  Ru25  1  0.366300  0.873867  0.500000  1
  Ru  Ru26  1  0.507567  0.633700  0.500000  1
  Ru  Ru27  1  0.126133  0.492433  0.500000  1
  Ru  Ru28  1  0.000000  0.000000  0.000000  1
  Ru  Ru29  1  0.282630  0.282630  0.500000  1
  Ru  Ru30  1  0.717370  0.000000  0.500000  1
  Ru  Ru31  1  0.000000  0.554989  0.000000  1
  Ru  Ru32  1  0.445011  0.445011  0.000000  1
  Ru  Ru33  1  0.554989  0.000000  0.000000  1
  Ru  Ru34  1  0.808312  0.185099  0.000000  1
  Ru  Ru35  1  0.000000  0.717370  0.500000  1
