# generated using pymatgen
data_ScB2C
_symmetry_space_group_name_H-M   'P 1'
_cell_length_a   6.64555454
_cell_length_b   6.64555454
_cell_length_c   6.79219139
_cell_angle_alpha   90.00000000
_cell_angle_beta   90.00000000
_cell_angle_gamma   90.00000000
_symmetry_Int_Tables_number   1
_chemical_formula_structural   ScB2C
_chemical_formula_sum   'Sc8 B16 C8'
_cell_volume   299.96623225
_cell_formula_units_Z   8
loop_
 _symmetry_equiv_pos_site_id
 _symmetry_equiv_pos_as_xyz
  1  'x, y, z'
loop_
 _atom_site_type_symbol
 _atom_site_label
 _atom_site_symmetry_multiplicity
 _atom_site_fract_x
 _atom_site_fract_y
 _atom_site_fract_z
 _atom_site_occupancy
  Sc  Sc0  1  0.307666  0.807666  0.750000  1
  Sc  Sc1  1  0.192334  0.307666  0.250000  1
  Sc  Sc2  1  0.807666  0.692334  0.250000  1
  Sc  Sc3  1  0.692334  0.192334  0.750000  1
  Sc  Sc4  1  0.692334  0.192334  0.250000  1
  Sc  Sc5  1  0.807666  0.692334  0.750000  1
  Sc  Sc6  1  0.192334  0.307666  0.750000  1
  Sc  Sc7  1  0.307666  0.807666  0.250000  1
  B  B8  1  0.153217  0.033560  0.000000  1
  B  B9  1  0.533560  0.653217  0.500000  1
  B  B10  1  0.846783  0.966440  0.000000  1
  B  B11  1  0.346783  0.533560  0.000000  1
  B  B12  1  0.653217  0.466440  0.000000  1
  B  B13  1  0.033560  0.846783  0.500000  1
  B  B14  1  0.966440  0.153217  0.500000  1
  B  B15  1  0.466440  0.346783  0.500000  1
  B  B16  1  0.096085  0.592221  0.000000  1
  B  B17  1  0.407779  0.096085  0.500000  1
  B  B18  1  0.592221  0.903915  0.500000  1
  B  B19  1  0.596085  0.907779  0.000000  1
  B  B20  1  0.403915  0.092221  0.000000  1
  B  B21  1  0.903915  0.407779  0.000000  1
  B  B22  1  0.092221  0.596085  0.500000  1
  B  B23  1  0.907779  0.403915  0.500000  1
  C  C24  1  0.179023  0.040026  0.500000  1
  C  C25  1  0.679023  0.459974  0.500000  1
  C  C26  1  0.320977  0.540026  0.500000  1
  C  C27  1  0.959974  0.179023  0.000000  1
  C  C28  1  0.040026  0.820977  0.000000  1
  C  C29  1  0.540026  0.679023  0.000000  1
  C  C30  1  0.820977  0.959974  0.500000  1
  C  C31  1  0.459974  0.320977  0.000000  1
