# generated using pymatgen
data_Si2W
_symmetry_space_group_name_H-M   'P 1'
_cell_length_a   4.61685270
_cell_length_b   4.61685270
_cell_length_c   6.65322177
_cell_angle_alpha   90.00000000
_cell_angle_beta   90.00000000
_cell_angle_gamma   120.00000000
_symmetry_Int_Tables_number   1
_chemical_formula_structural   Si2W
_chemical_formula_sum   'Si6 W3'
_cell_volume   122.81592080
_cell_formula_units_Z   3
loop_
 _symmetry_equiv_pos_site_id
 _symmetry_equiv_pos_as_xyz
  1  'x, y, z'
loop_
 _atom_site_type_symbol
 _atom_site_label
 _atom_site_symmetry_multiplicity
 _atom_site_fract_x
 _atom_site_fract_y
 _atom_site_fract_z
 _atom_site_occupancy
  Si  Si0  1  0.163626  0.836374  0.833333  1
  Si  Si1  1  0.327253  0.163626  0.166667  1
  Si  Si2  1  0.836374  0.672747  0.500000  1
  Si  Si3  1  0.836374  0.163626  0.833333  1
  Si  Si4  1  0.672747  0.836374  0.166667  1
  Si  Si5  1  0.163626  0.327253  0.500000  1
  W  W6  1  0.500000  0.000000  0.500000  1
  W  W7  1  0.000000  0.500000  0.166667  1
  W  W8  1  0.500000  0.500000  0.833333  1
