# generated using pymatgen
data_MnOF
_symmetry_space_group_name_H-M   'P 1'
_cell_length_a   4.64450821
_cell_length_b   4.64450821
_cell_length_c   12.68301987
_cell_angle_alpha   90.00000000
_cell_angle_beta   90.00000000
_cell_angle_gamma   90.23754562
_symmetry_Int_Tables_number   1
_chemical_formula_structural   MnOF
_chemical_formula_sum   'Mn8 O8 F8'
_cell_volume   273.58886012
_cell_formula_units_Z   8
loop_
 _symmetry_equiv_pos_site_id
 _symmetry_equiv_pos_as_xyz
  1  'x, y, z'
loop_
 _atom_site_type_symbol
 _atom_site_label
 _atom_site_symmetry_multiplicity
 _atom_site_fract_x
 _atom_site_fract_y
 _atom_site_fract_z
 _atom_site_occupancy
  Mn  Mn0  1  0.971341  0.971341  0.000000  1
  Mn  Mn1  1  0.038749  0.021321  0.250000  1
  Mn  Mn2  1  0.971341  0.971341  0.500000  1
  Mn  Mn3  1  0.021321  0.038749  0.750000  1
  Mn  Mn4  1  0.524670  0.472987  0.624577  1
  Mn  Mn5  1  0.472987  0.524670  0.124577  1
  Mn  Mn6  1  0.472987  0.524670  0.375423  1
  Mn  Mn7  1  0.524670  0.472987  0.875423  1
  O  O8  1  0.817769  0.180015  0.622482  1
  O  O9  1  0.817769  0.180015  0.877518  1
  O  O10  1  0.302496  0.333940  0.250000  1
  O  O11  1  0.333940  0.302496  0.750000  1
  O  O12  1  0.675085  0.675085  0.000000  1
  O  O13  1  0.675085  0.675085  0.500000  1
  O  O14  1  0.180015  0.817769  0.122482  1
  O  O15  1  0.180015  0.817769  0.377518  1
  F  F16  1  0.784590  0.222754  0.131384  1
  F  F17  1  0.784590  0.222754  0.368616  1
  F  F18  1  0.275596  0.275596  0.000000  1
  F  F19  1  0.275596  0.275596  0.500000  1
  F  F20  1  0.712282  0.741598  0.250000  1
  F  F21  1  0.741598  0.712282  0.750000  1
  F  F22  1  0.222754  0.784590  0.631384  1
  F  F23  1  0.222754  0.784590  0.868616  1
