# generated using pymatgen
data_Ba4As2O
_symmetry_space_group_name_H-M   'P 1'
_cell_length_a   9.47283363
_cell_length_b   9.47283363
_cell_length_c   9.47283363
_cell_angle_alpha   147.96630156
_cell_angle_beta   147.96630156
_cell_angle_gamma   45.93511419
_symmetry_Int_Tables_number   1
_chemical_formula_structural   Ba4As2O
_chemical_formula_sum   'Ba4 As2 O1'
_cell_volume   238.33978950
_cell_formula_units_Z   1
loop_
 _symmetry_equiv_pos_site_id
 _symmetry_equiv_pos_as_xyz
  1  'x, y, z'
loop_
 _atom_site_type_symbol
 _atom_site_label
 _atom_site_symmetry_multiplicity
 _atom_site_fract_x
 _atom_site_fract_y
 _atom_site_fract_z
 _atom_site_occupancy
  Ba  Ba0  1  0.675939  0.675939  0.000000  1
  Ba  Ba1  1  0.324061  0.324061  0.000000  1
  Ba  Ba2  1  0.500000  0.000000  0.500000  1
  Ba  Ba3  1  1.000000  0.500000  0.500000  1
  As  As4  1  0.864323  0.864323  0.000000  1
  As  As5  1  0.135677  0.135677  0.000000  1
  O  O6  1  0.500000  0.500000  0.000000  1
