# generated using pymatgen
data_Li4Ni(PO3)6
_symmetry_space_group_name_H-M   'P 1'
_cell_length_a   7.30257246
_cell_length_b   7.30257246
_cell_length_c   13.92681995
_cell_angle_alpha   86.71082922
_cell_angle_beta   93.28917078
_cell_angle_gamma   115.98513354
_symmetry_Int_Tables_number   1
_chemical_formula_structural   Li4Ni(PO3)6
_chemical_formula_sum   'Li8 Ni2 P12 O36'
_cell_volume   666.07394942
_cell_formula_units_Z   2
loop_
 _symmetry_equiv_pos_site_id
 _symmetry_equiv_pos_as_xyz
  1  'x, y, z'
loop_
 _atom_site_type_symbol
 _atom_site_label
 _atom_site_symmetry_multiplicity
 _atom_site_fract_x
 _atom_site_fract_y
 _atom_site_fract_z
 _atom_site_occupancy
  Li  Li0  1  0.961384  0.299037  0.076207  1
  Li  Li1  1  0.700963  0.038616  0.576207  1
  Li  Li2  1  0.783518  0.442090  0.453160  1
  Li  Li3  1  0.557910  0.216482  0.953160  1
  Li  Li4  1  0.442090  0.783518  0.046840  1
  Li  Li5  1  0.216482  0.557910  0.546840  1
  Li  Li6  1  0.299037  0.961384  0.423793  1
  Li  Li7  1  0.038616  0.700963  0.923793  1
  Ni  Ni8  1  0.370299  0.370299  0.250000  1
  Ni  Ni9  1  0.629701  0.629701  0.750000  1
  P  P10  1  0.965520  0.148351  0.384908  1
  P  P11  1  0.851649  0.034480  0.884908  1
  P  P12  1  0.628458  0.095879  0.247543  1
  P  P13  1  0.904121  0.371542  0.747543  1
  P  P14  1  0.767995  0.598544  0.111673  1
  P  P15  1  0.401456  0.232005  0.611673  1
  P  P16  1  0.598544  0.767995  0.388327  1
  P  P17  1  0.232005  0.401456  0.888327  1
  P  P18  1  0.095879  0.628458  0.252457  1
  P  P19  1  0.371542  0.904121  0.752457  1
  P  P20  1  0.148351  0.965520  0.115092  1
  P  P21  1  0.034480  0.851649  0.615092  1
  O  O22  1  0.864586  0.187395  0.285074  1
  O  O23  1  0.916733  0.246482  0.465542  1
  O  O24  1  0.812605  0.135414  0.785074  1
  O  O25  1  0.753518  0.083267  0.965542  1
  O  O26  1  0.629137  0.099389  0.140727  1
  O  O27  1  0.900611  0.370863  0.640727  1
  O  O28  1  0.809869  0.495903  0.030352  1
  O  O29  1  0.520333  0.194719  0.299145  1
  O  O30  1  0.862251  0.547996  0.211720  1
  O  O31  1  0.504097  0.190131  0.530352  1
  O  O32  1  0.805281  0.479667  0.799145  1
  O  O33  1  0.452004  0.137749  0.711720  1
  O  O34  1  0.902102  0.843903  0.100425  1
  O  O35  1  0.193380  0.181542  0.134687  1
  O  O36  1  0.554481  0.563348  0.131088  1
  O  O37  1  0.156097  0.097898  0.600425  1
  O  O38  1  0.563348  0.554481  0.368912  1
  O  O39  1  0.818458  0.806620  0.634687  1
  O  O40  1  0.181542  0.193380  0.365313  1
  O  O41  1  0.436652  0.445519  0.631088  1
  O  O42  1  0.843903  0.902102  0.399575  1
  O  O43  1  0.445519  0.436652  0.868912  1
  O  O44  1  0.806620  0.818458  0.865313  1
  O  O45  1  0.097898  0.156097  0.899575  1
  O  O46  1  0.547996  0.862251  0.288280  1
  O  O47  1  0.194719  0.520333  0.200855  1
  O  O48  1  0.495903  0.809869  0.469648  1
  O  O49  1  0.137749  0.452004  0.788280  1
  O  O50  1  0.479667  0.805281  0.700855  1
  O  O51  1  0.190131  0.504097  0.969648  1
  O  O52  1  0.099389  0.629137  0.359273  1
  O  O53  1  0.370863  0.900611  0.859273  1
  O  O54  1  0.246482  0.916733  0.034458  1
  O  O55  1  0.187395  0.864586  0.214926  1
  O  O56  1  0.083267  0.753518  0.534458  1
  O  O57  1  0.135414  0.812605  0.714926  1
