# generated using pymatgen
data_Li7(CoO3)2
_symmetry_space_group_name_H-M   'P 1'
_cell_length_a   6.55240198
_cell_length_b   6.55240198
_cell_length_c   9.97988717
_cell_angle_alpha   74.85065169
_cell_angle_beta   105.14934831
_cell_angle_gamma   133.95368892
_symmetry_Int_Tables_number   1
_chemical_formula_structural   Li7(CoO3)2
_chemical_formula_sum   'Li14 Co4 O12'
_cell_volume   295.76360082
_cell_formula_units_Z   2
loop_
 _symmetry_equiv_pos_site_id
 _symmetry_equiv_pos_as_xyz
  1  'x, y, z'
loop_
 _atom_site_type_symbol
 _atom_site_label
 _atom_site_symmetry_multiplicity
 _atom_site_fract_x
 _atom_site_fract_y
 _atom_site_fract_z
 _atom_site_occupancy
  Li  Li0  1  0.451181  0.327368  0.669382  1
  Li  Li1  1  0.773612  0.436991  0.907398  1
  Li  Li2  1  0.672632  0.548819  0.169382  1
  Li  Li3  1  0.272884  0.821455  0.795865  1
  Li  Li4  1  0.563009  0.226388  0.407398  1
  Li  Li5  1  0.821455  0.272884  0.704135  1
  Li  Li6  1  0.178545  0.727116  0.295865  1
  Li  Li7  1  0.436991  0.773612  0.592602  1
  Li  Li8  1  0.727116  0.178545  0.204135  1
  Li  Li9  1  0.327368  0.451181  0.830618  1
  Li  Li10  1  0.226388  0.563009  0.092602  1
  Li  Li11  1  0.954551  0.954551  0.750000  1
  Li  Li12  1  0.548819  0.672632  0.330618  1
  Li  Li13  1  0.045449  0.045449  0.250000  1
  Co  Co14  1  0.014012  0.825514  0.531427  1
  Co  Co15  1  0.174486  0.985988  0.031427  1
  Co  Co16  1  0.825514  0.014012  0.968573  1
  Co  Co17  1  0.985988  0.174486  0.468573  1
  O  O18  1  0.345479  0.143731  0.869827  1
  O  O19  1  0.856314  0.626998  0.698553  1
  O  O20  1  0.856269  0.654521  0.369827  1
  O  O21  1  0.397743  0.054738  0.585634  1
  O  O22  1  0.373002  0.143686  0.198553  1
  O  O23  1  0.054738  0.397743  0.914366  1
  O  O24  1  0.945262  0.602257  0.085634  1
  O  O25  1  0.626998  0.856314  0.801447  1
  O  O26  1  0.602257  0.945262  0.414366  1
  O  O27  1  0.143731  0.345479  0.630173  1
  O  O28  1  0.143686  0.373002  0.301447  1
  O  O29  1  0.654521  0.856269  0.130173  1
