# generated using pymatgen
data_Lu5Ni19B6
_symmetry_space_group_name_H-M   'P 1'
_cell_length_a   4.91599776
_cell_length_b   4.91599776
_cell_length_c   16.97113617
_cell_angle_alpha   90.00000000
_cell_angle_beta   90.00000000
_cell_angle_gamma   120.00000000
_symmetry_Int_Tables_number   1
_chemical_formula_structural   Lu5Ni19B6
_chemical_formula_sum   'Lu5 Ni19 B6'
_cell_volume   355.19341263
_cell_formula_units_Z   1
loop_
 _symmetry_equiv_pos_site_id
 _symmetry_equiv_pos_as_xyz
  1  'x, y, z'
loop_
 _atom_site_type_symbol
 _atom_site_label
 _atom_site_symmetry_multiplicity
 _atom_site_fract_x
 _atom_site_fract_y
 _atom_site_fract_z
 _atom_site_occupancy
  Lu  Lu0  1  0.000000  0.000000  0.701971  1
  Lu  Lu1  1  0.000000  0.000000  0.298029  1
  Lu  Lu2  1  0.000000  0.000000  0.903722  1
  Lu  Lu3  1  0.000000  0.000000  0.096278  1
  Lu  Lu4  1  0.000000  0.000000  0.500000  1
  Ni  Ni5  1  0.500000  0.500000  0.000000  1
  Ni  Ni6  1  0.000000  0.500000  0.000000  1
  Ni  Ni7  1  0.333333  0.666667  0.295415  1
  Ni  Ni8  1  0.666667  0.333333  0.295415  1
  Ni  Ni9  1  0.666667  0.333333  0.704585  1
  Ni  Ni10  1  0.333333  0.666667  0.704585  1
  Ni  Ni11  1  0.500000  0.000000  0.176760  1
  Ni  Ni12  1  0.500000  0.500000  0.176760  1
  Ni  Ni13  1  0.000000  0.500000  0.176760  1
  Ni  Ni14  1  0.500000  0.000000  0.823240  1
  Ni  Ni15  1  0.500000  0.500000  0.823240  1
  Ni  Ni16  1  0.000000  0.500000  0.823240  1
  Ni  Ni17  1  0.500000  0.000000  0.414707  1
  Ni  Ni18  1  0.500000  0.500000  0.414707  1
  Ni  Ni19  1  0.000000  0.500000  0.414707  1
  Ni  Ni20  1  0.500000  0.000000  0.585293  1
  Ni  Ni21  1  0.500000  0.500000  0.585293  1
  Ni  Ni22  1  0.000000  0.500000  0.585293  1
  Ni  Ni23  1  0.500000  0.000000  0.000000  1
  B  B24  1  0.333333  0.666667  0.909331  1
  B  B25  1  0.666667  0.333333  0.909331  1
  B  B26  1  0.666667  0.333333  0.090669  1
  B  B27  1  0.333333  0.666667  0.090669  1
  B  B28  1  0.666667  0.333333  0.500000  1
  B  B29  1  0.333333  0.666667  0.500000  1
