# generated using pymatgen
data_Ca2SnS4
_symmetry_space_group_name_H-M   'P 1'
_cell_length_a   6.58633570
_cell_length_b   8.29476515
_cell_length_c   13.99080068
_cell_angle_alpha   90.00000000
_cell_angle_beta   90.00000000
_cell_angle_gamma   90.00000000
_symmetry_Int_Tables_number   1
_chemical_formula_structural   Ca2SnS4
_chemical_formula_sum   'Ca8 Sn4 S16'
_cell_volume   764.34693139
_cell_formula_units_Z   4
loop_
 _symmetry_equiv_pos_site_id
 _symmetry_equiv_pos_as_xyz
  1  'x, y, z'
loop_
 _atom_site_type_symbol
 _atom_site_label
 _atom_site_symmetry_multiplicity
 _atom_site_fract_x
 _atom_site_fract_y
 _atom_site_fract_z
 _atom_site_occupancy
  Ca  Ca0  1  0.500000  0.000000  0.500000  1
  Ca  Ca1  1  0.000000  0.500000  0.000000  1
  Ca  Ca2  1  0.500000  0.500000  0.500000  1
  Ca  Ca3  1  0.000000  0.000000  0.000000  1
  Ca  Ca4  1  0.011792  0.750000  0.726360  1
  Ca  Ca5  1  0.488208  0.750000  0.226360  1
  Ca  Ca6  1  0.988208  0.250000  0.273640  1
  Ca  Ca7  1  0.511792  0.250000  0.773640  1
  Sn  Sn8  1  0.586629  0.750000  0.904734  1
  Sn  Sn9  1  0.913371  0.750000  0.404734  1
  Sn  Sn10  1  0.413371  0.250000  0.095266  1
  Sn  Sn11  1  0.086629  0.250000  0.595266  1
  S  S12  1  0.740422  0.750000  0.063009  1
  S  S13  1  0.759578  0.750000  0.563009  1
  S  S14  1  0.259578  0.250000  0.936991  1
  S  S15  1  0.240422  0.250000  0.436991  1
  S  S16  1  0.223475  0.750000  0.906957  1
  S  S17  1  0.276525  0.750000  0.406957  1
  S  S18  1  0.776525  0.250000  0.093043  1
  S  S19  1  0.723475  0.250000  0.593043  1
  S  S20  1  0.754238  0.976353  0.828431  1
  S  S21  1  0.745762  0.523647  0.328431  1
  S  S22  1  0.245762  0.476353  0.171569  1
  S  S23  1  0.254238  0.023647  0.671569  1
  S  S24  1  0.245762  0.023647  0.171569  1
  S  S25  1  0.254238  0.476353  0.671569  1
  S  S26  1  0.754238  0.523647  0.828431  1
  S  S27  1  0.745762  0.976353  0.328431  1
