# generated using pymatgen
data_Li2MnFe(BO3)2
_symmetry_space_group_name_H-M   'P 1'
_cell_length_a   8.25563167
_cell_length_b   6.32313968
_cell_length_c   8.26418725
_cell_angle_alpha   90.00000000
_cell_angle_beta   119.86735356
_cell_angle_gamma   90.00000000
_symmetry_Int_Tables_number   1
_chemical_formula_structural   Li2MnFe(BO3)2
_chemical_formula_sum   'Li6 Mn3 Fe3 B6 O18'
_cell_volume   374.10439196
_cell_formula_units_Z   3
loop_
 _symmetry_equiv_pos_site_id
 _symmetry_equiv_pos_as_xyz
  1  'x, y, z'
loop_
 _atom_site_type_symbol
 _atom_site_label
 _atom_site_symmetry_multiplicity
 _atom_site_fract_x
 _atom_site_fract_y
 _atom_site_fract_z
 _atom_site_occupancy
  Li  Li0  1  0.716832  0.749443  0.698356  1
  Li  Li1  1  0.716832  0.250557  0.698356  1
  Li  Li2  1  0.983162  0.749569  0.284549  1
  Li  Li3  1  0.983162  0.250431  0.284549  1
  Li  Li4  1  0.301263  0.249648  0.015944  1
  Li  Li5  1  0.301263  0.750352  0.015944  1
  Mn  Mn6  1  0.628154  0.000000  0.988162  1
  Mn  Mn7  1  0.626767  0.500000  0.987976  1
  Mn  Mn8  1  0.359365  0.000000  0.371739  1
  Fe  Fe9  1  0.359207  0.500000  0.366233  1
  Fe  Fe10  1  0.007975  0.000000  0.640967  1
  Fe  Fe11  1  0.008133  0.500000  0.640385  1
  B  B12  1  0.001793  0.000000  0.999179  1
  B  B13  1  0.001758  0.500000  0.001698  1
  B  B14  1  0.667897  0.748158  0.335939  1
  B  B15  1  0.667897  0.251842  0.335939  1
  B  B16  1  0.330619  0.748509  0.664503  1
  B  B17  1  0.330619  0.251491  0.664503  1
  O  O18  1  0.892709  0.500000  0.808041  1
  O  O19  1  0.888782  0.000000  0.805172  1
  O  O20  1  0.861882  0.749840  0.443736  1
  O  O21  1  0.861882  0.250160  0.443736  1
  O  O22  1  0.920916  0.000000  0.112206  1
  O  O23  1  0.919004  0.500000  0.112334  1
  O  O24  1  0.559636  0.745961  0.421279  1
  O  O25  1  0.559636  0.254039  0.421279  1
  O  O26  1  0.582078  0.750106  0.142525  1
  O  O27  1  0.582078  0.249894  0.142525  1
  O  O28  1  0.524940  0.749543  0.777245  1
  O  O29  1  0.524940  0.250457  0.777245  1
  O  O30  1  0.194871  0.000000  0.078568  1
  O  O31  1  0.196415  0.500000  0.085036  1
  O  O32  1  0.217632  0.749791  0.745447  1
  O  O33  1  0.217632  0.250209  0.745447  1
  O  O34  1  0.251136  0.253057  0.471631  1
  O  O35  1  0.251136  0.746943  0.471631  1
