# generated using pymatgen
data_La10Se19
_symmetry_space_group_name_H-M   'P 1'
_cell_length_a   9.50443777
_cell_length_b   9.50443777
_cell_length_c   17.22101829
_cell_angle_alpha   90.00000000
_cell_angle_beta   90.00000000
_cell_angle_gamma   90.00000000
_symmetry_Int_Tables_number   1
_chemical_formula_structural   La10Se19
_chemical_formula_sum   'La20 Se38'
_cell_volume   1555.64927527
_cell_formula_units_Z   2
loop_
 _symmetry_equiv_pos_site_id
 _symmetry_equiv_pos_as_xyz
  1  'x, y, z'
loop_
 _atom_site_type_symbol
 _atom_site_label
 _atom_site_symmetry_multiplicity
 _atom_site_fract_x
 _atom_site_fract_y
 _atom_site_fract_z
 _atom_site_occupancy
  La  La0  1  0.000000  0.500000  0.865638  1
  La  La1  1  0.000000  0.500000  0.365638  1
  La  La2  1  0.500000  0.000000  0.634362  1
  La  La3  1  0.500000  0.000000  0.134362  1
  La  La4  1  0.303503  0.398717  0.646115  1
  La  La5  1  0.101283  0.803503  0.146115  1
  La  La6  1  0.898717  0.196497  0.146115  1
  La  La7  1  0.696497  0.601283  0.646115  1
  La  La8  1  0.196497  0.101283  0.853885  1
  La  La9  1  0.398717  0.696497  0.353885  1
  La  La10  1  0.601283  0.303503  0.353885  1
  La  La11  1  0.803503  0.898717  0.853885  1
  La  La12  1  0.206164  0.096910  0.369691  1
  La  La13  1  0.403090  0.706164  0.869691  1
  La  La14  1  0.596910  0.293836  0.869691  1
  La  La15  1  0.793836  0.903090  0.369691  1
  La  La16  1  0.293836  0.403090  0.130309  1
  La  La17  1  0.096910  0.793836  0.630309  1
  La  La18  1  0.903090  0.206164  0.630309  1
  La  La19  1  0.706164  0.596910  0.130309  1
  Se  Se20  1  0.500000  0.000000  0.815913  1
  Se  Se21  1  0.500000  0.000000  0.315913  1
  Se  Se22  1  0.000000  0.500000  0.684087  1
  Se  Se23  1  0.000000  0.500000  0.184087  1
  Se  Se24  1  0.600858  0.302474  0.686115  1
  Se  Se25  1  0.197526  0.100858  0.186115  1
  Se  Se26  1  0.802474  0.899142  0.186115  1
  Se  Se27  1  0.399142  0.697526  0.686115  1
  Se  Se28  1  0.899142  0.197526  0.813885  1
  Se  Se29  1  0.302474  0.399142  0.313885  1
  Se  Se30  1  0.697526  0.600858  0.313885  1
  Se  Se31  1  0.100858  0.802474  0.813885  1
  Se  Se32  1  0.201562  0.097864  0.676759  1
  Se  Se33  1  0.402136  0.701562  0.176759  1
  Se  Se34  1  0.597864  0.298438  0.176759  1
  Se  Se35  1  0.798438  0.902136  0.676759  1
  Se  Se36  1  0.298438  0.402136  0.823241  1
  Se  Se37  1  0.097864  0.798438  0.323241  1
  Se  Se38  1  0.902136  0.201562  0.323241  1
  Se  Se39  1  0.701562  0.597864  0.823241  1
  Se  Se40  1  0.635700  0.819028  0.998992  1
  Se  Se41  1  0.680972  0.135700  0.498992  1
  Se  Se42  1  0.319028  0.864300  0.498992  1
  Se  Se43  1  0.364300  0.180972  0.998992  1
  Se  Se44  1  0.864300  0.680972  0.501008  1
  Se  Se45  1  0.819028  0.364300  0.001008  1
  Se  Se46  1  0.180972  0.635700  0.001008  1
  Se  Se47  1  0.135700  0.319028  0.501008  1
  Se  Se48  1  0.720837  0.075238  0.000402  1
  Se  Se49  1  0.424762  0.220837  0.500402  1
  Se  Se50  1  0.575238  0.779163  0.500402  1
  Se  Se51  1  0.279163  0.924762  0.000402  1
  Se  Se52  1  0.779163  0.424762  0.499598  1
  Se  Se53  1  0.075238  0.279163  0.999598  1
  Se  Se54  1  0.924762  0.720837  0.999598  1
  Se  Se55  1  0.220837  0.575238  0.499598  1
  Se  Se56  1  0.500000  0.500000  0.000000  1
  Se  Se57  1  0.000000  0.000000  0.500000  1
