# generated using pymatgen
data_Li2Si3NiO8
_symmetry_space_group_name_H-M   'P 1'
_cell_length_a   4.93573740
_cell_length_b   10.07986445
_cell_length_c   6.77956019
_cell_angle_alpha   90.00000000
_cell_angle_beta   90.57720257
_cell_angle_gamma   90.00000000
_symmetry_Int_Tables_number   1
_chemical_formula_structural   Li2Si3NiO8
_chemical_formula_sum   'Li4 Si6 Ni2 O16'
_cell_volume   337.27660720
_cell_formula_units_Z   2
loop_
 _symmetry_equiv_pos_site_id
 _symmetry_equiv_pos_as_xyz
  1  'x, y, z'
loop_
 _atom_site_type_symbol
 _atom_site_label
 _atom_site_symmetry_multiplicity
 _atom_site_fract_x
 _atom_site_fract_y
 _atom_site_fract_z
 _atom_site_occupancy
  Li  Li0  1  0.070045  0.853269  0.249429  1
  Li  Li1  1  0.929955  0.353269  0.750571  1
  Li  Li2  1  0.592096  0.658698  0.736092  1
  Li  Li3  1  0.407904  0.158698  0.263908  1
  Si  Si4  1  0.556575  0.663670  0.225926  1
  Si  Si5  1  0.948478  0.087632  0.519498  1
  Si  Si6  1  0.051522  0.587632  0.480502  1
  Si  Si7  1  0.443425  0.163670  0.774074  1
  Si  Si8  1  0.404389  0.405753  0.026903  1
  Si  Si9  1  0.595611  0.905753  0.973097  1
  Ni  Ni10  1  0.079282  0.838774  0.748245  1
  Ni  Ni11  1  0.920718  0.338774  0.251755  1
  O  O12  1  0.019188  0.157699  0.313451  1
  O  O13  1  0.877614  0.660774  0.292846  1
  O  O14  1  0.625790  0.120987  0.581961  1
  O  O15  1  0.987383  0.432157  0.498039  1
  O  O16  1  0.374210  0.620987  0.418039  1
  O  O17  1  0.012617  0.932157  0.501961  1
  O  O18  1  0.122386  0.160774  0.707154  1
  O  O19  1  0.980812  0.657699  0.686549  1
  O  O20  1  0.530375  0.319021  0.831162  1
  O  O21  1  0.477285  0.835021  0.777071  1
  O  O22  1  0.488292  0.066100  0.971637  1
  O  O23  1  0.081022  0.400446  0.000622  1
  O  O24  1  0.511708  0.566100  0.028363  1
  O  O25  1  0.918978  0.900446  0.999378  1
  O  O26  1  0.522715  0.335021  0.222929  1
  O  O27  1  0.469625  0.819021  0.168838  1
