# generated using pymatgen
data_LiFe3O3F4
_symmetry_space_group_name_H-M   'P 1'
_cell_length_a   5.37551362
_cell_length_b   5.37551362
_cell_length_c   5.37551362
_cell_angle_alpha   102.87628366
_cell_angle_beta   102.87628366
_cell_angle_gamma   102.87628366
_symmetry_Int_Tables_number   1
_chemical_formula_structural   LiFe3O3F4
_chemical_formula_sum   'Li1 Fe3 O3 F4'
_cell_volume   141.41874408
_cell_formula_units_Z   1
loop_
 _symmetry_equiv_pos_site_id
 _symmetry_equiv_pos_as_xyz
  1  'x, y, z'
loop_
 _atom_site_type_symbol
 _atom_site_label
 _atom_site_symmetry_multiplicity
 _atom_site_fract_x
 _atom_site_fract_y
 _atom_site_fract_z
 _atom_site_occupancy
  Li  Li0  1  0.984107  0.984107  0.984107  1
  Fe  Fe1  1  0.534353  0.534353  0.154435  1
  Fe  Fe2  1  0.154435  0.534353  0.534353  1
  Fe  Fe3  1  0.534353  0.154435  0.534353  1
  O  O4  1  0.383486  0.766441  0.383486  1
  O  O5  1  0.766441  0.383486  0.383486  1
  O  O6  1  0.383486  0.383486  0.766441  1
  F  F7  1  0.818840  0.818840  0.183114  1
  F  F8  1  0.251479  0.251479  0.251479  1
  F  F9  1  0.183114  0.818840  0.818840  1
  F  F10  1  0.818840  0.183114  0.818840  1
