# generated using pymatgen
data_Li3Mn4(BO3)4
_symmetry_space_group_name_H-M   'P 1'
_cell_length_a   5.90506983
_cell_length_b   8.28502079
_cell_length_c   10.57297745
_cell_angle_alpha   90.36800812
_cell_angle_beta   90.65972416
_cell_angle_gamma   102.00246589
_symmetry_Int_Tables_number   1
_chemical_formula_structural   Li3Mn4(BO3)4
_chemical_formula_sum   'Li6 Mn8 B8 O24'
_cell_volume   505.90611415
_cell_formula_units_Z   2
loop_
 _symmetry_equiv_pos_site_id
 _symmetry_equiv_pos_as_xyz
  1  'x, y, z'
loop_
 _atom_site_type_symbol
 _atom_site_label
 _atom_site_symmetry_multiplicity
 _atom_site_fract_x
 _atom_site_fract_y
 _atom_site_fract_z
 _atom_site_occupancy
  Li  Li0  1  0.935098  0.267675  0.080377  1
  Li  Li1  1  0.962479  0.273748  0.579734  1
  Li  Li2  1  0.541812  0.223440  0.670503  1
  Li  Li3  1  0.458188  0.776560  0.329497  1
  Li  Li4  1  0.064902  0.732325  0.919623  1
  Li  Li5  1  0.037521  0.726252  0.420266  1
  Mn  Mn6  1  0.805647  0.566119  0.163288  1
  Mn  Mn7  1  0.827270  0.581453  0.658878  1
  Mn  Mn8  1  0.661951  0.913957  0.090014  1
  Mn  Mn9  1  0.670748  0.920449  0.595737  1
  Mn  Mn10  1  0.338049  0.086043  0.909986  1
  Mn  Mn11  1  0.329252  0.079551  0.404263  1
  Mn  Mn12  1  0.194353  0.433881  0.836712  1
  Mn  Mn13  1  0.172730  0.418547  0.341122  1
  B  B14  1  0.845387  0.107408  0.841027  1
  B  B15  1  0.836593  0.087307  0.335737  1
  B  B16  1  0.677137  0.410767  0.908141  1
  B  B17  1  0.664310  0.406294  0.418490  1
  B  B18  1  0.322863  0.589233  0.091859  1
  B  B19  1  0.335690  0.593706  0.581510  1
  B  B20  1  0.154613  0.892592  0.158973  1
  B  B21  1  0.163407  0.912693  0.664263  1
  O  O22  1  0.843327  0.100724  0.207230  1
  O  O23  1  0.825124  0.124703  0.712249  1
  O  O24  1  0.956904  0.810002  0.090295  1
  O  O25  1  0.986417  0.816419  0.588540  1
  O  O26  1  0.858748  0.515204  0.845878  1
  O  O27  1  0.841564  0.515039  0.356276  1
  O  O28  1  0.682520  0.384813  0.034450  1
  O  O29  1  0.686364  0.376996  0.546021  1
  O  O30  1  0.490018  0.321817  0.833907  1
  O  O31  1  0.472112  0.323411  0.351467  1
  O  O32  1  0.338485  0.977003  0.087830  1
  O  O33  1  0.661515  0.022997  0.912170  1
  O  O34  1  0.343988  0.018872  0.602191  1
  O  O35  1  0.656012  0.981128  0.397809  1
  O  O36  1  0.509982  0.678183  0.166093  1
  O  O37  1  0.527888  0.676589  0.648533  1
  O  O38  1  0.317480  0.615187  0.965550  1
  O  O39  1  0.313636  0.623004  0.453979  1
  O  O40  1  0.141252  0.484796  0.154122  1
  O  O41  1  0.158436  0.484961  0.643724  1
  O  O42  1  0.043096  0.189998  0.909705  1
  O  O43  1  0.013583  0.183581  0.411460  1
  O  O44  1  0.156673  0.899276  0.792770  1
  O  O45  1  0.174876  0.875297  0.287751  1
