# generated using pymatgen
data_Li4Ni2P4H3O16
_symmetry_space_group_name_H-M   'P 1'
_cell_length_a   4.97592003
_cell_length_b   7.56302788
_cell_length_c   8.17299957
_cell_angle_alpha   91.75559998
_cell_angle_beta   91.79278381
_cell_angle_gamma   101.35338080
_symmetry_Int_Tables_number   1
_chemical_formula_structural   Li4Ni2P4H3O16
_chemical_formula_sum   'Li4 Ni2 P4 H3 O16'
_cell_volume   301.19580019
_cell_formula_units_Z   1
loop_
 _symmetry_equiv_pos_site_id
 _symmetry_equiv_pos_as_xyz
  1  'x, y, z'
loop_
 _atom_site_type_symbol
 _atom_site_label
 _atom_site_symmetry_multiplicity
 _atom_site_fract_x
 _atom_site_fract_y
 _atom_site_fract_z
 _atom_site_occupancy
  Li  Li0  1  0.120955  0.686631  0.646514  1
  Li  Li1  1  0.385708  0.842105  0.130501  1
  Li  Li2  1  0.603649  0.162373  0.869718  1
  Li  Li3  1  0.877946  0.314048  0.351572  1
  Ni  Ni4  1  0.000751  0.496176  0.002918  1
  Ni  Ni5  1  0.498136  0.001592  0.498563  1
  P  P6  1  0.100891  0.246353  0.666833  1
  P  P7  1  0.375111  0.236962  0.150503  1
  P  P8  1  0.623976  0.754975  0.846400  1
  P  P9  1  0.896543  0.754520  0.332291  1
  H  H10  1  0.415157  0.434809  0.568508  1
  H  H11  1  0.582339  0.563202  0.427997  1
  H  H12  1  0.950458  0.978007  0.986056  1
  O  O13  1  0.123033  0.844990  0.453177  1
  O  O14  1  0.985595  0.298349  0.829331  1
  O  O15  1  0.151260  0.355728  0.175799  1
  O  O16  1  0.222252  0.438320  0.582033  1
  O  O17  1  0.394288  0.661191  0.951400  1
  O  O18  1  0.514635  0.801293  0.678746  1
  O  O19  1  0.247967  0.057393  0.060171  1
  O  O20  1  0.345055  0.152887  0.683420  1
  O  O21  1  0.652310  0.848069  0.315531  1
  O  O22  1  0.752325  0.943697  0.938408  1
  O  O23  1  0.482318  0.202679  0.324299  1
  O  O24  1  0.610506  0.340028  0.051446  1
  O  O25  1  0.777069  0.563104  0.418443  1
  O  O26  1  0.854060  0.645167  0.824492  1
  O  O27  1  0.009133  0.701895  0.169168  1
  O  O28  1  0.875455  0.155362  0.545864  1
