# generated using pymatgen
data_SrCaI4
_symmetry_space_group_name_H-M   'P 1'
_cell_length_a   8.10451824
_cell_length_b   16.32642796
_cell_length_c   8.37030009
_cell_angle_alpha   90.00000000
_cell_angle_beta   94.14154840
_cell_angle_gamma   90.00000000
_symmetry_Int_Tables_number   1
_chemical_formula_structural   SrCaI4
_chemical_formula_sum   'Sr4 Ca4 I16'
_cell_volume   1104.64782347
_cell_formula_units_Z   4
loop_
 _symmetry_equiv_pos_site_id
 _symmetry_equiv_pos_as_xyz
  1  'x, y, z'
loop_
 _atom_site_type_symbol
 _atom_site_label
 _atom_site_symmetry_multiplicity
 _atom_site_fract_x
 _atom_site_fract_y
 _atom_site_fract_z
 _atom_site_occupancy
  Sr  Sr0  1  0.345322  0.866346  0.106133  1
  Sr  Sr1  1  0.345322  0.633654  0.606133  1
  Sr  Sr2  1  0.654678  0.366346  0.393867  1
  Sr  Sr3  1  0.654678  0.133654  0.893867  1
  Ca  Ca4  1  0.226987  0.136576  0.257997  1
  Ca  Ca5  1  0.226987  0.363424  0.757997  1
  Ca  Ca6  1  0.773013  0.636576  0.242003  1
  Ca  Ca7  1  0.773013  0.863424  0.742003  1
  I  I8  1  0.125716  0.704635  0.271728  1
  I  I9  1  0.268842  0.449839  0.431606  1
  I  I10  1  0.409540  0.279699  0.073660  1
  I  I11  1  0.125716  0.795365  0.771728  1
  I  I12  1  0.234504  0.970265  0.407913  1
  I  I13  1  0.268842  0.050161  0.931606  1
  I  I14  1  0.409540  0.220301  0.573660  1
  I  I15  1  0.234504  0.529735  0.907913  1
  I  I16  1  0.765496  0.470265  0.092087  1
  I  I17  1  0.590460  0.779699  0.426340  1
  I  I18  1  0.731158  0.949839  0.068394  1
  I  I19  1  0.765496  0.029735  0.592087  1
  I  I20  1  0.874284  0.204635  0.228272  1
  I  I21  1  0.590460  0.720301  0.926340  1
  I  I22  1  0.731158  0.550161  0.568394  1
  I  I23  1  0.874284  0.295365  0.728272  1
