# generated using pymatgen
data_Li2SnP2O7
_symmetry_space_group_name_H-M   'P 1'
_cell_length_a   8.34480397
_cell_length_b   8.34480397
_cell_length_c   9.46399057
_cell_angle_alpha   65.07433327
_cell_angle_beta   114.92566673
_cell_angle_gamma   143.43338812
_symmetry_Int_Tables_number   1
_chemical_formula_structural   Li2SnP2O7
_chemical_formula_sum   'Li4 Sn2 P4 O14'
_cell_volume   351.83006677
_cell_formula_units_Z   2
loop_
 _symmetry_equiv_pos_site_id
 _symmetry_equiv_pos_as_xyz
  1  'x, y, z'
loop_
 _atom_site_type_symbol
 _atom_site_label
 _atom_site_symmetry_multiplicity
 _atom_site_fract_x
 _atom_site_fract_y
 _atom_site_fract_z
 _atom_site_occupancy
  Li  Li0  1  0.838934  0.447303  0.552193  1
  Li  Li1  1  0.552697  0.161066  0.052193  1
  Li  Li2  1  0.447303  0.838934  0.947807  1
  Li  Li3  1  0.161066  0.552697  0.447807  1
  Sn  Sn4  1  0.500000  0.500000  0.500000  1
  Sn  Sn5  1  0.500000  0.500000  0.000000  1
  P  P6  1  0.985570  0.769192  0.818164  1
  P  P7  1  0.230808  0.014430  0.318164  1
  P  P8  1  0.769192  0.985570  0.681836  1
  P  P9  1  0.014430  0.230808  0.181836  1
  O  O10  1  0.276058  0.932032  0.891871  1
  O  O11  1  0.067968  0.723942  0.391871  1
  O  O12  1  0.779620  0.549268  0.935700  1
  O  O13  1  0.887102  0.648104  0.676334  1
  O  O14  1  0.450732  0.220380  0.435700  1
  O  O15  1  0.351896  0.112898  0.176334  1
  O  O16  1  0.997956  0.997956  0.750000  1
  O  O17  1  0.002044  0.002044  0.250000  1
  O  O18  1  0.648104  0.887102  0.823666  1
  O  O19  1  0.549268  0.779620  0.564300  1
  O  O20  1  0.112898  0.351896  0.323666  1
  O  O21  1  0.220380  0.450732  0.064300  1
  O  O22  1  0.932032  0.276058  0.608129  1
  O  O23  1  0.723942  0.067968  0.108129  1
