# generated using pymatgen
data_LiV2OF5
_symmetry_space_group_name_H-M   'P 1'
_cell_length_a   4.66192105
_cell_length_b   5.20588343
_cell_length_c   17.63900951
_cell_angle_alpha   90.00000000
_cell_angle_beta   104.55620963
_cell_angle_gamma   90.00000000
_symmetry_Int_Tables_number   1
_chemical_formula_structural   LiV2OF5
_chemical_formula_sum   'Li4 V8 O4 F20'
_cell_volume   414.34750658
_cell_formula_units_Z   4
loop_
 _symmetry_equiv_pos_site_id
 _symmetry_equiv_pos_as_xyz
  1  'x, y, z'
loop_
 _atom_site_type_symbol
 _atom_site_label
 _atom_site_symmetry_multiplicity
 _atom_site_fract_x
 _atom_site_fract_y
 _atom_site_fract_z
 _atom_site_occupancy
  Li  Li0  1  0.611131  0.502481  0.619455  1
  Li  Li1  1  0.371404  0.018261  0.382106  1
  Li  Li2  1  0.611131  0.497519  0.119455  1
  Li  Li3  1  0.371404  0.981739  0.882106  1
  V  V4  1  0.696961  0.025768  0.716343  1
  V  V5  1  0.965209  0.504537  0.943319  1
  V  V6  1  0.047275  0.000098  0.048531  1
  V  V7  1  0.282960  0.499271  0.284087  1
  V  V8  1  0.965209  0.495463  0.443319  1
  V  V9  1  0.696961  0.974232  0.216343  1
  V  V10  1  0.282960  0.500729  0.784087  1
  V  V11  1  0.047275  0.999902  0.548531  1
  O  O12  1  0.471871  0.317635  0.714293  1
  O  O13  1  0.144286  0.367633  0.371116  1
  O  O14  1  0.471871  0.682365  0.214293  1
  O  O15  1  0.144286  0.632367  0.871116  1
  F  F16  1  0.054962  0.838634  0.292700  1
  F  F17  1  0.388254  0.846365  0.625418  1
  F  F18  1  0.745822  0.839721  0.962365  1
  F  F19  1  0.822135  0.330950  0.038482  1
  F  F20  1  0.260990  0.330344  0.538249  1
  F  F21  1  0.195033  0.842404  0.463622  1
  F  F22  1  0.860182  0.836294  0.124043  1
  F  F23  1  0.614438  0.334301  0.874785  1
  F  F24  1  0.527752  0.829150  0.794225  1
  F  F25  1  0.939332  0.313566  0.206859  1
  F  F26  1  0.054962  0.161366  0.792700  1
  F  F27  1  0.388254  0.153635  0.125418  1
  F  F28  1  0.745822  0.160279  0.462365  1
  F  F29  1  0.822135  0.669050  0.538482  1
  F  F30  1  0.195033  0.157596  0.963622  1
  F  F31  1  0.260990  0.669656  0.038249  1
  F  F32  1  0.860182  0.163706  0.624043  1
  F  F33  1  0.614438  0.665699  0.374785  1
  F  F34  1  0.939332  0.686434  0.706859  1
  F  F35  1  0.527752  0.170850  0.294225  1
