# generated using pymatgen
data_Fe10O9F11
_symmetry_space_group_name_H-M   'P 1'
_cell_length_a   4.77461518
_cell_length_b   15.41743487
_cell_length_c   4.78551136
_cell_angle_alpha   90.00000000
_cell_angle_beta   94.66565635
_cell_angle_gamma   90.00000000
_symmetry_Int_Tables_number   1
_chemical_formula_structural   Fe10O9F11
_chemical_formula_sum   'Fe10 O9 F11'
_cell_volume   351.10526955
_cell_formula_units_Z   1
loop_
 _symmetry_equiv_pos_site_id
 _symmetry_equiv_pos_as_xyz
  1  'x, y, z'
loop_
 _atom_site_type_symbol
 _atom_site_label
 _atom_site_symmetry_multiplicity
 _atom_site_fract_x
 _atom_site_fract_y
 _atom_site_fract_z
 _atom_site_occupancy
  Fe  Fe0  1  0.004294  0.297743  0.005200  1
  Fe  Fe1  1  0.001368  0.500000  0.001638  1
  Fe  Fe2  1  0.004294  0.702257  0.005200  1
  Fe  Fe3  1  0.970557  0.909564  0.989110  1
  Fe  Fe4  1  0.970557  0.090436  0.989110  1
  Fe  Fe5  1  0.501042  0.402122  0.501139  1
  Fe  Fe6  1  0.507572  0.791958  0.514300  1
  Fe  Fe7  1  0.501042  0.597878  0.501139  1
  Fe  Fe8  1  0.548557  0.000000  0.493623  1
  Fe  Fe9  1  0.507572  0.208042  0.514300  1
  O  O10  1  0.798640  0.000000  0.202088  1
  O  O11  1  0.703298  0.304033  0.706328  1
  O  O12  1  0.702932  0.500000  0.702676  1
  O  O13  1  0.703298  0.695967  0.706328  1
  O  O14  1  0.685081  0.894765  0.681250  1
  O  O15  1  0.685081  0.105235  0.681250  1
  O  O16  1  0.300863  0.301541  0.304304  1
  O  O17  1  0.300913  0.500000  0.300876  1
  O  O18  1  0.300863  0.698459  0.304304  1
  F  F19  1  0.810055  0.400446  0.194835  1
  F  F20  1  0.810055  0.599554  0.194835  1
  F  F21  1  0.801704  0.797509  0.197154  1
  F  F22  1  0.801704  0.202491  0.197154  1
  F  F23  1  0.295839  0.896748  0.291921  1
  F  F24  1  0.295839  0.103252  0.291921  1
  F  F25  1  0.194281  0.400249  0.811179  1
  F  F26  1  0.193233  0.798736  0.808146  1
  F  F27  1  0.194281  0.599751  0.811179  1
  F  F28  1  0.193233  0.201264  0.808146  1
  F  F29  1  0.211950  0.000000  0.789368  1
