# generated using pymatgen
data_LiAg3F8
_symmetry_space_group_name_H-M   'P 1'
_cell_length_a   6.89945729
_cell_length_b   6.89945729
_cell_length_c   10.77219827
_cell_angle_alpha   64.41961978
_cell_angle_beta   115.58038022
_cell_angle_gamma   134.02721390
_symmetry_Int_Tables_number   1
_chemical_formula_structural   LiAg3F8
_chemical_formula_sum   'Li2 Ag6 F16'
_cell_volume   325.62852167
_cell_formula_units_Z   2
loop_
 _symmetry_equiv_pos_site_id
 _symmetry_equiv_pos_as_xyz
  1  'x, y, z'
loop_
 _atom_site_type_symbol
 _atom_site_label
 _atom_site_symmetry_multiplicity
 _atom_site_fract_x
 _atom_site_fract_y
 _atom_site_fract_z
 _atom_site_occupancy
  Li  Li0  1  0.468657  0.468657  0.750000  1
  Li  Li1  1  0.531343  0.531343  0.250000  1
  Ag  Ag2  1  0.755126  0.273903  0.111053  1
  Ag  Ag3  1  0.273903  0.755126  0.388947  1
  Ag  Ag4  1  0.000000  1.000000  0.500000  1
  Ag  Ag5  1  0.000000  0.000000  0.000000  1
  Ag  Ag6  1  0.726097  0.244874  0.611053  1
  Ag  Ag7  1  0.244874  0.726097  0.888947  1
  F  F8  1  0.530459  0.222464  0.908939  1
  F  F9  1  0.222464  0.530459  0.591061  1
  F  F10  1  0.230148  0.370555  0.873320  1
  F  F11  1  0.958564  0.617389  0.701016  1
  F  F12  1  0.382611  0.041436  0.201016  1
  F  F13  1  0.629445  0.769852  0.373320  1
  F  F14  1  0.231048  0.026080  0.413843  1
  F  F15  1  0.026080  0.231048  0.086157  1
  F  F16  1  0.973920  0.768952  0.913843  1
  F  F17  1  0.768952  0.973920  0.586157  1
  F  F18  1  0.370555  0.230148  0.626680  1
  F  F19  1  0.617389  0.958564  0.798984  1
  F  F20  1  0.041436  0.382611  0.298984  1
  F  F21  1  0.769852  0.629445  0.126680  1
  F  F22  1  0.777536  0.469541  0.408939  1
  F  F23  1  0.469541  0.777536  0.091061  1
