# generated using pymatgen
data_Fe3O5F
_symmetry_space_group_name_H-M   'P 1'
_cell_length_a   5.54129945
_cell_length_b   5.55795703
_cell_length_c   7.20218417
_cell_angle_alpha   71.76666368
_cell_angle_beta   71.48429740
_cell_angle_gamma   72.58001909
_symmetry_Int_Tables_number   1
_chemical_formula_structural   Fe3O5F
_chemical_formula_sum   'Fe6 O10 F2'
_cell_volume   194.78372234
_cell_formula_units_Z   2
loop_
 _symmetry_equiv_pos_site_id
 _symmetry_equiv_pos_as_xyz
  1  'x, y, z'
loop_
 _atom_site_type_symbol
 _atom_site_label
 _atom_site_symmetry_multiplicity
 _atom_site_fract_x
 _atom_site_fract_y
 _atom_site_fract_z
 _atom_site_occupancy
  Fe  Fe0  1  0.319961  0.332827  0.172018  1
  Fe  Fe1  1  0.658368  0.665422  0.332829  1
  Fe  Fe2  1  0.341356  0.350881  0.669709  1
  Fe  Fe3  1  0.669098  0.684397  0.828485  1
  Fe  Fe4  1  0.989760  0.996382  0.489829  1
  Fe  Fe5  1  0.021845  0.975324  0.009317  1
  O  O6  1  0.345985  0.974804  0.334604  1
  O  O7  1  0.027578  0.648060  0.668341  1
  O  O8  1  0.768974  0.761662  0.041670  1
  O  O9  1  0.433308  0.441082  0.371858  1
  O  O10  1  0.235512  0.228214  0.959715  1
  O  O11  1  0.570162  0.581685  0.623785  1
  O  O12  1  0.884251  0.885440  0.298903  1
  O  O13  1  0.643423  0.042594  0.663400  1
  O  O14  1  0.962820  0.351495  0.339354  1
  O  O15  1  0.319642  0.682382  0.997024  1
  F  F16  1  0.102632  0.102224  0.703477  1
  F  F17  1  0.705325  0.295127  0.995680  1
