# generated using pymatgen
data_La3MnAlS7
_symmetry_space_group_name_H-M   'P 1'
_cell_length_a   10.24816730
_cell_length_b   10.24816730
_cell_length_c   6.03177541
_cell_angle_alpha   90.00000000
_cell_angle_beta   90.00000000
_cell_angle_gamma   120.00000000
_symmetry_Int_Tables_number   1
_chemical_formula_structural   La3MnAlS7
_chemical_formula_sum   'La6 Mn2 Al2 S14'
_cell_volume   548.61566943
_cell_formula_units_Z   2
loop_
 _symmetry_equiv_pos_site_id
 _symmetry_equiv_pos_as_xyz
  1  'x, y, z'
loop_
 _atom_site_type_symbol
 _atom_site_label
 _atom_site_symmetry_multiplicity
 _atom_site_fract_x
 _atom_site_fract_y
 _atom_site_fract_z
 _atom_site_occupancy
  La  La0  1  0.139968  0.374705  0.234584  1
  La  La1  1  0.860032  0.625295  0.734584  1
  La  La2  1  0.625295  0.765263  0.234584  1
  La  La3  1  0.234737  0.860032  0.234584  1
  La  La4  1  0.765263  0.139968  0.734584  1
  La  La5  1  0.374705  0.234737  0.734584  1
  Mn  Mn6  1  0.000000  0.000000  0.994934  1
  Mn  Mn7  1  0.000000  0.000000  0.494934  1
  Al  Al8  1  0.333333  0.666667  0.654998  1
  Al  Al9  1  0.666667  0.333333  0.154998  1
  S  S10  1  0.333333  0.666667  0.024429  1
  S  S11  1  0.666667  0.333333  0.524429  1
  S  S12  1  0.088862  0.235542  0.758703  1
  S  S13  1  0.911138  0.764458  0.258703  1
  S  S14  1  0.764458  0.853320  0.758703  1
  S  S15  1  0.146680  0.911138  0.758703  1
  S  S16  1  0.853320  0.088862  0.258703  1
  S  S17  1  0.235542  0.146680  0.258703  1
  S  S18  1  0.418576  0.519901  0.509286  1
  S  S19  1  0.581424  0.480099  0.009286  1
  S  S20  1  0.480099  0.898675  0.509286  1
  S  S21  1  0.101325  0.581424  0.509286  1
  S  S22  1  0.898675  0.418576  0.009286  1
  S  S23  1  0.519901  0.101325  0.009286  1
