# generated using pymatgen
data_Na4CrO3
_symmetry_space_group_name_H-M   'P 1'
_cell_length_a   6.40568531
_cell_length_b   6.40568531
_cell_length_c   8.26074947
_cell_angle_alpha   69.51986448
_cell_angle_beta   110.48013552
_cell_angle_gamma   125.77260887
_symmetry_Int_Tables_number   1
_chemical_formula_structural   Na4CrO3
_chemical_formula_sum   'Na8 Cr2 O6'
_cell_volume   252.87678788
_cell_formula_units_Z   2
loop_
 _symmetry_equiv_pos_site_id
 _symmetry_equiv_pos_as_xyz
  1  'x, y, z'
loop_
 _atom_site_type_symbol
 _atom_site_label
 _atom_site_symmetry_multiplicity
 _atom_site_fract_x
 _atom_site_fract_y
 _atom_site_fract_z
 _atom_site_occupancy
  Na  Na0  1  0.029031  0.256518  0.062795  1
  Na  Na1  1  0.743482  0.970969  0.562795  1
  Na  Na2  1  0.126683  0.559864  0.361988  1
  Na  Na3  1  0.484967  0.090823  0.155707  1
  Na  Na4  1  0.440136  0.873317  0.861988  1
  Na  Na5  1  0.909177  0.515033  0.655707  1
  Na  Na6  1  0.278302  0.034446  0.467891  1
  Na  Na7  1  0.965554  0.721698  0.967891  1
  Cr  Cr8  1  0.653699  0.622378  0.249084  1
  Cr  Cr9  1  0.377622  0.346301  0.749084  1
  O  O10  1  0.349987  0.654735  0.150356  1
  O  O11  1  0.345265  0.650013  0.650356  1
  O  O12  1  0.693694  0.320024  0.394406  1
  O  O13  1  0.015590  0.878283  0.205405  1
  O  O14  1  0.679976  0.306306  0.894406  1
  O  O15  1  0.121717  0.984410  0.705405  1
