# generated using pymatgen
data_Li2V(SiO3)2
_symmetry_space_group_name_H-M   'P 1'
_cell_length_a   7.22423152
_cell_length_b   10.00304677
_cell_length_c   10.23069364
_cell_angle_alpha   90.00000000
_cell_angle_beta   90.00000000
_cell_angle_gamma   90.00000000
_symmetry_Int_Tables_number   1
_chemical_formula_structural   Li2V(SiO3)2
_chemical_formula_sum   'Li12 V6 Si12 O36'
_cell_volume   739.31417807
_cell_formula_units_Z   6
loop_
 _symmetry_equiv_pos_site_id
 _symmetry_equiv_pos_as_xyz
  1  'x, y, z'
loop_
 _atom_site_type_symbol
 _atom_site_label
 _atom_site_symmetry_multiplicity
 _atom_site_fract_x
 _atom_site_fract_y
 _atom_site_fract_z
 _atom_site_occupancy
  Li  Li0  1  0.776231  0.244713  0.000000  1
  Li  Li1  1  0.765780  0.765230  0.000000  1
  Li  Li2  1  0.289909  0.453695  0.232660  1
  Li  Li3  1  0.220674  0.039465  0.235123  1
  Li  Li4  1  0.779326  0.539465  0.264877  1
  Li  Li5  1  0.710091  0.953695  0.267340  1
  Li  Li6  1  0.234220  0.265230  0.500000  1
  Li  Li7  1  0.223769  0.744713  0.500000  1
  Li  Li8  1  0.710091  0.953695  0.732660  1
  Li  Li9  1  0.779326  0.539465  0.735123  1
  Li  Li10  1  0.220674  0.039465  0.764877  1
  Li  Li11  1  0.289909  0.453695  0.767340  1
  V  V12  1  0.249797  0.246970  0.000000  1
  V  V13  1  0.981972  0.018761  0.000000  1
  V  V14  1  0.516971  0.474063  0.000000  1
  V  V15  1  0.018028  0.518761  0.500000  1
  V  V16  1  0.483029  0.974063  0.500000  1
  V  V17  1  0.750203  0.746970  0.500000  1
  Si  Si18  1  0.987503  0.525883  0.000000  1
  Si  Si19  1  0.512285  0.968824  0.000000  1
  Si  Si20  1  0.024736  0.748744  0.225386  1
  Si  Si21  1  0.473066  0.747681  0.225851  1
  Si  Si22  1  0.526934  0.247681  0.274149  1
  Si  Si23  1  0.975264  0.248744  0.274614  1
  Si  Si24  1  0.487715  0.468824  0.500000  1
  Si  Si25  1  0.012497  0.025883  0.500000  1
  Si  Si26  1  0.975264  0.248744  0.725386  1
  Si  Si27  1  0.526934  0.247681  0.725851  1
  Si  Si28  1  0.473066  0.747681  0.774149  1
  Si  Si29  1  0.024736  0.748744  0.774614  1
  O  O30  1  0.303073  0.028491  0.000000  1
  O  O31  1  0.688194  0.067994  0.000000  1
  O  O32  1  0.195345  0.465160  0.000000  1
  O  O33  1  0.810577  0.428366  0.000000  1
  O  O34  1  0.039857  0.188147  0.134749  1
  O  O35  1  0.551656  0.862281  0.122038  1
  O  O36  1  0.951021  0.630271  0.124233  1
  O  O37  1  0.453324  0.307991  0.136698  1
  O  O38  1  0.940668  0.889919  0.174983  1
  O  O39  1  0.541479  0.600146  0.181614  1
  O  O40  1  0.751702  0.257847  0.279540  1
  O  O41  1  0.248298  0.757847  0.220460  1
  O  O42  1  0.458521  0.100146  0.318386  1
  O  O43  1  0.059332  0.389919  0.325017  1
  O  O44  1  0.546676  0.807991  0.363302  1
  O  O45  1  0.048979  0.130271  0.375767  1
  O  O46  1  0.448344  0.362281  0.377962  1
  O  O47  1  0.960143  0.688147  0.365251  1
  O  O48  1  0.696927  0.528491  0.500000  1
  O  O49  1  0.311806  0.567994  0.500000  1
  O  O50  1  0.189423  0.928366  0.500000  1
  O  O51  1  0.804655  0.965160  0.500000  1
  O  O52  1  0.960143  0.688147  0.634749  1
  O  O53  1  0.448344  0.362281  0.622038  1
  O  O54  1  0.048979  0.130271  0.624233  1
  O  O55  1  0.546676  0.807991  0.636698  1
  O  O56  1  0.059332  0.389919  0.674983  1
  O  O57  1  0.458521  0.100146  0.681614  1
  O  O58  1  0.248298  0.757847  0.779540  1
  O  O59  1  0.751702  0.257847  0.720460  1
  O  O60  1  0.541479  0.600146  0.818386  1
  O  O61  1  0.940668  0.889919  0.825017  1
  O  O62  1  0.453324  0.307991  0.863302  1
  O  O63  1  0.951021  0.630271  0.875767  1
  O  O64  1  0.551656  0.862281  0.877962  1
  O  O65  1  0.039857  0.188147  0.865251  1
