# generated using pymatgen
data_K2SO3
_symmetry_space_group_name_H-M   'P 1'
_cell_length_a   6.03599801
_cell_length_b   6.03599801
_cell_length_c   7.11659089
_cell_angle_alpha   90.00000000
_cell_angle_beta   90.00000000
_cell_angle_gamma   120.00000000
_symmetry_Int_Tables_number   1
_chemical_formula_structural   K2SO3
_chemical_formula_sum   'K4 S2 O6'
_cell_volume   224.54366547
_cell_formula_units_Z   2
loop_
 _symmetry_equiv_pos_site_id
 _symmetry_equiv_pos_as_xyz
  1  'x, y, z'
loop_
 _atom_site_type_symbol
 _atom_site_label
 _atom_site_symmetry_multiplicity
 _atom_site_fract_x
 _atom_site_fract_y
 _atom_site_fract_z
 _atom_site_occupancy
  K  K0  1  0.333333  0.666667  0.677346  1
  K  K1  1  0.666667  0.333333  0.322654  1
  K  K2  1  0.000000  0.000000  0.500000  1
  K  K3  1  0.000000  0.000000  0.000000  1
  S  S4  1  0.333333  0.666667  0.181291  1
  S  S5  1  0.666667  0.333333  0.818709  1
  O  O6  1  0.395740  0.197870  0.732255  1
  O  O7  1  0.802130  0.197870  0.732255  1
  O  O8  1  0.802130  0.604260  0.732255  1
  O  O9  1  0.197870  0.395740  0.267745  1
  O  O10  1  0.604260  0.802130  0.267745  1
  O  O11  1  0.197870  0.802130  0.267745  1
