# generated using pymatgen
data_LaBO3
_symmetry_space_group_name_H-M   'P 1'
_cell_length_a   5.14452417
_cell_length_b   5.91933121
_cell_length_c   8.29142694
_cell_angle_alpha   90.00000000
_cell_angle_beta   90.00000000
_cell_angle_gamma   90.00000000
_symmetry_Int_Tables_number   1
_chemical_formula_structural   LaBO3
_chemical_formula_sum   'La4 B4 O12'
_cell_volume   252.49171454
_cell_formula_units_Z   4
loop_
 _symmetry_equiv_pos_site_id
 _symmetry_equiv_pos_as_xyz
  1  'x, y, z'
loop_
 _atom_site_type_symbol
 _atom_site_label
 _atom_site_symmetry_multiplicity
 _atom_site_fract_x
 _atom_site_fract_y
 _atom_site_fract_z
 _atom_site_occupancy
  La  La0  1  0.250000  0.756477  0.084675  1
  La  La1  1  0.750000  0.243523  0.915325  1
  La  La2  1  0.250000  0.256477  0.415325  1
  La  La3  1  0.750000  0.743523  0.584675  1
  B  B4  1  0.250000  0.920632  0.739319  1
  B  B5  1  0.750000  0.079368  0.260681  1
  B  B6  1  0.250000  0.420632  0.760681  1
  B  B7  1  0.750000  0.579368  0.239319  1
  O  O8  1  0.750000  0.591728  0.073299  1
  O  O9  1  0.250000  0.408272  0.926701  1
  O  O10  1  0.750000  0.091728  0.426701  1
  O  O11  1  0.250000  0.908272  0.573299  1
  O  O12  1  0.517716  0.584152  0.323678  1
  O  O13  1  0.017716  0.415848  0.676322  1
  O  O14  1  0.982284  0.084152  0.176322  1
  O  O15  1  0.482284  0.915848  0.823678  1
  O  O16  1  0.482284  0.415848  0.676322  1
  O  O17  1  0.982284  0.584152  0.323678  1
  O  O18  1  0.017716  0.915848  0.823678  1
  O  O19  1  0.517716  0.084152  0.176322  1
