# generated using pymatgen
data_Li2Mn3(BO3)3
_symmetry_space_group_name_H-M   'P 1'
_cell_length_a   14.68785589
_cell_length_b   14.68785589
_cell_length_c   8.30196347
_cell_angle_alpha   89.61336184
_cell_angle_beta   90.38663816
_cell_angle_gamma   155.05579475
_symmetry_Int_Tables_number   1
_chemical_formula_structural   Li2Mn3(BO3)3
_chemical_formula_sum   'Li8 Mn12 B12 O36'
_cell_volume   755.31378108
_cell_formula_units_Z   4
loop_
 _symmetry_equiv_pos_site_id
 _symmetry_equiv_pos_as_xyz
  1  'x, y, z'
loop_
 _atom_site_type_symbol
 _atom_site_label
 _atom_site_symmetry_multiplicity
 _atom_site_fract_x
 _atom_site_fract_y
 _atom_site_fract_z
 _atom_site_occupancy
  Li  Li0  1  0.742949  0.257051  0.713359  1
  Li  Li1  1  0.928073  0.071927  0.663440  1
  Li  Li2  1  0.072865  0.927135  0.631854  1
  Li  Li3  1  0.573138  0.426862  0.630796  1
  Li  Li4  1  0.493094  0.506906  0.212015  1
  Li  Li5  1  0.178286  0.821714  0.161131  1
  Li  Li6  1  0.823234  0.176766  0.129410  1
  Li  Li7  1  0.322338  0.677662  0.130896  1
  Mn  Mn8  1  0.752944  0.755909  0.869844  1
  Mn  Mn9  1  0.244091  0.247056  0.869844  1
  Mn  Mn10  1  0.907699  0.593792  0.830229  1
  Mn  Mn11  1  0.406208  0.092301  0.830229  1
  Mn  Mn12  1  0.587636  0.911448  0.801735  1
  Mn  Mn13  1  0.088552  0.412364  0.801735  1
  Mn  Mn14  1  0.497146  0.999202  0.372486  1
  Mn  Mn15  1  0.000798  0.502854  0.372486  1
  Mn  Mn16  1  0.656674  0.843540  0.332096  1
  Mn  Mn17  1  0.156460  0.343326  0.332096  1
  Mn  Mn18  1  0.839711  0.664660  0.302085  1
  Mn  Mn19  1  0.335340  0.160289  0.302085  1
  B  B20  1  0.000868  0.502095  0.002220  1
  B  B21  1  0.497905  0.999132  0.002220  1
  B  B22  1  0.413012  0.586988  0.005006  1
  B  B23  1  0.913370  0.086630  0.997376  1
  B  B24  1  0.579213  0.420787  0.994334  1
  B  B25  1  0.082353  0.917647  0.999980  1
  B  B26  1  0.751651  0.753862  0.502895  1
  B  B27  1  0.246138  0.248349  0.502895  1
  B  B28  1  0.830689  0.169311  0.499622  1
  B  B29  1  0.331974  0.668026  0.494906  1
  B  B30  1  0.163351  0.836649  0.498216  1
  B  B31  1  0.662776  0.337224  0.501470  1
  O  O32  1  0.960669  0.039331  0.966282  1
  O  O33  1  0.461185  0.538815  0.986714  1
  O  O34  1  0.130918  0.869082  0.981725  1
  O  O35  1  0.626347  0.373653  0.973214  1
  O  O36  1  0.548920  0.451080  0.860396  1
  O  O37  1  0.053157  0.946843  0.865842  1
  O  O38  1  0.382683  0.617317  0.875288  1
  O  O39  1  0.883325  0.116675  0.864125  1
  O  O40  1  0.962039  0.507811  0.855548  1
  O  O41  1  0.492189  0.037961  0.855548  1
  O  O42  1  0.313955  0.686045  0.650184  1
  O  O43  1  0.810942  0.189058  0.653446  1
  O  O44  1  0.144139  0.855861  0.651127  1
  O  O45  1  0.644155  0.355845  0.655941  1
  O  O46  1  0.745320  0.798765  0.642365  1
  O  O47  1  0.201235  0.254680  0.642365  1
  O  O48  1  0.798826  0.703497  0.511932  1
  O  O49  1  0.296503  0.201174  0.511932  1
  O  O50  1  0.711046  0.288954  0.485153  1
  O  O51  1  0.210565  0.789435  0.470875  1
  O  O52  1  0.379525  0.620475  0.473199  1
  O  O53  1  0.878944  0.121056  0.483902  1
  O  O54  1  0.301429  0.698571  0.362943  1
  O  O55  1  0.801580  0.198420  0.364507  1
  O  O56  1  0.134202  0.865798  0.362253  1
  O  O57  1  0.632555  0.367445  0.371111  1
  O  O58  1  0.712015  0.758705  0.355765  1
  O  O59  1  0.241295  0.287985  0.355765  1
  O  O60  1  0.560023  0.439977  0.149647  1
  O  O61  1  0.063719  0.936281  0.153839  1
  O  O62  1  0.394404  0.605596  0.158794  1
  O  O63  1  0.895408  0.104592  0.152138  1
  O  O64  1  0.992087  0.544714  0.142058  1
  O  O65  1  0.455286  0.007913  0.142058  1
  O  O66  1  0.553935  0.958678  0.010326  1
  O  O67  1  0.041322  0.446065  0.010326  1
