# generated using pymatgen
data_LiVCrO4
_symmetry_space_group_name_H-M   'P 1'
_cell_length_a   5.88984706
_cell_length_b   5.88984706
_cell_length_c   5.88984706
_cell_angle_alpha   119.26344238
_cell_angle_beta   118.30441394
_cell_angle_gamma   92.12146186
_symmetry_Int_Tables_number   1
_chemical_formula_structural   LiVCrO4
_chemical_formula_sum   'Li2 V2 Cr2 O8'
_cell_volume   147.01071225
_cell_formula_units_Z   2
loop_
 _symmetry_equiv_pos_site_id
 _symmetry_equiv_pos_as_xyz
  1  'x, y, z'
loop_
 _atom_site_type_symbol
 _atom_site_label
 _atom_site_symmetry_multiplicity
 _atom_site_fract_x
 _atom_site_fract_y
 _atom_site_fract_z
 _atom_site_occupancy
  Li  Li0  1  0.500000  1.000000  0.500000  1
  Li  Li1  1  0.500000  0.500000  0.000000  1
  V  V2  1  0.000000  0.000000  0.000000  1
  V  V3  1  0.000000  0.500000  0.500000  1
  Cr  Cr4  1  0.500000  0.000000  1.000000  1
  Cr  Cr5  1  0.000000  0.000000  0.500000  1
  O  O6  1  0.232505  0.759497  0.526992  1
  O  O7  1  0.766114  0.243819  0.022295  1
  O  O8  1  0.232505  0.205512  0.973008  1
  O  O9  1  0.778476  0.756181  0.522295  1
  O  O10  1  0.221524  0.243819  0.477705  1
  O  O11  1  0.767495  0.794488  0.026992  1
  O  O12  1  0.233886  0.756181  0.977705  1
  O  O13  1  0.767495  0.240503  0.473008  1
