# generated using pymatgen
data_Li4Nb3Fe3(SbO8)2
_symmetry_space_group_name_H-M   'P 1'
_cell_length_a   6.15583158
_cell_length_b   6.22592443
_cell_length_c   10.55547436
_cell_angle_alpha   90.74003332
_cell_angle_beta   89.78383612
_cell_angle_gamma   118.91633360
_symmetry_Int_Tables_number   1
_chemical_formula_structural   Li4Nb3Fe3(SbO8)2
_chemical_formula_sum   'Li4 Nb3 Fe3 Sb2 O16'
_cell_volume   354.07931468
_cell_formula_units_Z   1
loop_
 _symmetry_equiv_pos_site_id
 _symmetry_equiv_pos_as_xyz
  1  'x, y, z'
loop_
 _atom_site_type_symbol
 _atom_site_label
 _atom_site_symmetry_multiplicity
 _atom_site_fract_x
 _atom_site_fract_y
 _atom_site_fract_z
 _atom_site_occupancy
  Li  Li0  1  0.671704  0.340311  0.899316  1
  Li  Li1  1  0.000707  0.001422  0.003116  1
  Li  Li2  1  0.999323  0.000562  0.487126  1
  Li  Li3  1  0.340445  0.677523  0.389362  1
  Nb  Nb4  1  0.823373  0.649530  0.230888  1
  Nb  Nb5  1  0.162288  0.822552  0.718909  1
  Nb  Nb6  1  0.659355  0.821979  0.719230  1
  Fe  Fe7  1  0.339354  0.164433  0.215861  1
  Fe  Fe8  1  0.824957  0.165570  0.215731  1
  Fe  Fe9  1  0.166022  0.331798  0.705353  1
  Sb  Sb10  1  0.643101  0.283628  0.496734  1
  Sb  Sb11  1  0.320812  0.649258  0.023641  1
  O  O12  1  0.302311  0.130001  0.594138  1
  O  O13  1  0.536460  0.040990  0.344879  1
  O  O14  1  0.691534  0.359748  0.108656  1
  O  O15  1  0.983925  0.986508  0.308195  1
  O  O16  1  0.994129  0.992106  0.818275  1
  O  O17  1  0.828946  0.132450  0.596089  1
  O  O18  1  0.522594  0.506263  0.325890  1
  O  O19  1  0.982655  0.500403  0.325653  1
  O  O20  1  0.142504  0.313034  0.108554  1
  O  O21  1  0.861924  0.718668  0.607967  1
  O  O22  1  0.017067  0.528247  0.813375  1
  O  O23  1  0.513883  0.526350  0.810795  1
  O  O24  1  0.349204  0.694242  0.606845  1
  O  O25  1  0.155508  0.833986  0.106611  1
  O  O26  1  0.490988  0.985574  0.816712  1
  O  O27  1  0.674625  0.842865  0.109941  1
