# generated using pymatgen
data_CsCoH24(SO10)2
_symmetry_space_group_name_H-M   'P 1'
_cell_length_a   12.34521955
_cell_length_b   12.34521955
_cell_length_c   12.34521955
_cell_angle_alpha   90.00000000
_cell_angle_beta   90.00000000
_cell_angle_gamma   90.00000000
_symmetry_Int_Tables_number   1
_chemical_formula_structural   CsCoH24(SO10)2
_chemical_formula_sum   'Cs4 Co4 H96 S8 O80'
_cell_volume   1881.46634303
_cell_formula_units_Z   4
loop_
 _symmetry_equiv_pos_site_id
 _symmetry_equiv_pos_as_xyz
  1  'x, y, z'
loop_
 _atom_site_type_symbol
 _atom_site_label
 _atom_site_symmetry_multiplicity
 _atom_site_fract_x
 _atom_site_fract_y
 _atom_site_fract_z
 _atom_site_occupancy
  Cs  Cs0  1  0.000000  0.000000  0.500000  1
  Cs  Cs1  1  0.000000  0.500000  0.000000  1
  Cs  Cs2  1  0.500000  0.500000  0.500000  1
  Cs  Cs3  1  0.500000  0.000000  0.000000  1
  Co  Co4  1  0.000000  0.000000  0.000000  1
  Co  Co5  1  0.000000  0.500000  0.500000  1
  Co  Co6  1  0.500000  0.000000  0.500000  1
  Co  Co7  1  0.500000  0.500000  0.000000  1
  H  H8  1  0.997255  0.207326  0.282004  1
  H  H9  1  0.997255  0.292674  0.782004  1
  H  H10  1  0.019869  0.057301  0.201074  1
  H  H11  1  0.019869  0.442699  0.701074  1
  H  H12  1  0.030628  0.573677  0.687110  1
  H  H13  1  0.030628  0.926323  0.187110  1
  H  H14  1  0.057301  0.201074  0.019869  1
  H  H15  1  0.057301  0.298926  0.519869  1
  H  H16  1  0.073677  0.687110  0.469372  1
  H  H17  1  0.073677  0.812890  0.969372  1
  H  H18  1  0.120001  0.176354  0.284534  1
  H  H19  1  0.120001  0.323646  0.784534  1
  H  H20  1  0.176354  0.284534  0.120001  1
  H  H21  1  0.176354  0.215466  0.620001  1
  H  H22  1  0.187110  0.030628  0.926323  1
  H  H23  1  0.187110  0.469372  0.426323  1
  H  H24  1  0.207326  0.282004  0.997255  1
  H  H25  1  0.207326  0.217996  0.497255  1
  H  H26  1  0.201074  0.019869  0.057301  1
  H  H27  1  0.201074  0.480131  0.557301  1
  H  H28  1  0.217996  0.497255  0.207326  1
  H  H29  1  0.217996  0.002745  0.707326  1
  H  H30  1  0.215466  0.620001  0.176354  1
  H  H31  1  0.215466  0.879999  0.676354  1
  H  H32  1  0.284534  0.120001  0.176354  1
  H  H33  1  0.284534  0.379999  0.676354  1
  H  H34  1  0.282004  0.997255  0.207326  1
  H  H35  1  0.282004  0.502745  0.707326  1
  H  H36  1  0.298926  0.519869  0.057301  1
  H  H37  1  0.298926  0.980131  0.557301  1
  H  H38  1  0.292674  0.782004  0.997255  1
  H  H39  1  0.292674  0.717996  0.497255  1
  H  H40  1  0.312890  0.530628  0.926323  1
  H  H41  1  0.312890  0.969372  0.426323  1
  H  H42  1  0.323646  0.784534  0.120001  1
  H  H43  1  0.323646  0.715466  0.620001  1
  H  H44  1  0.379999  0.676354  0.284534  1
  H  H45  1  0.379999  0.823646  0.784534  1
  H  H46  1  0.426323  0.187110  0.469372  1
  H  H47  1  0.426323  0.312890  0.969372  1
  H  H48  1  0.442699  0.798926  0.519869  1
  H  H49  1  0.442699  0.701074  0.019869  1
  H  H50  1  0.469372  0.426323  0.187110  1
  H  H51  1  0.469372  0.073677  0.687110  1
  H  H52  1  0.480131  0.557301  0.201074  1
  H  H53  1  0.480131  0.942699  0.701074  1
  H  H54  1  0.502745  0.707326  0.282004  1
  H  H55  1  0.502745  0.792674  0.782004  1
  H  H56  1  0.497255  0.207326  0.217996  1
  H  H57  1  0.497255  0.292674  0.717996  1
  H  H58  1  0.519869  0.057301  0.298926  1
  H  H59  1  0.519869  0.442699  0.798926  1
  H  H60  1  0.530628  0.926323  0.312890  1
  H  H61  1  0.530628  0.573677  0.812890  1
  H  H62  1  0.557301  0.201074  0.480131  1
  H  H63  1  0.557301  0.298926  0.980131  1
  H  H64  1  0.573677  0.687110  0.030628  1
  H  H65  1  0.573677  0.812890  0.530628  1
  H  H66  1  0.620001  0.176354  0.215466  1
  H  H67  1  0.620001  0.323646  0.715466  1
  H  H68  1  0.676354  0.215466  0.879999  1
  H  H69  1  0.676354  0.284534  0.379999  1
  H  H70  1  0.687110  0.030628  0.573677  1
  H  H71  1  0.687110  0.469372  0.073677  1
  H  H72  1  0.707326  0.217996  0.002745  1
  H  H73  1  0.707326  0.282004  0.502745  1
  H  H74  1  0.701074  0.480131  0.942699  1
  H  H75  1  0.701074  0.019869  0.442699  1
  H  H76  1  0.717996  0.002745  0.792674  1
  H  H77  1  0.717996  0.497255  0.292674  1
  H  H78  1  0.715466  0.620001  0.323646  1
  H  H79  1  0.715466  0.879999  0.823646  1
  H  H80  1  0.784534  0.120001  0.323646  1
  H  H81  1  0.784534  0.379999  0.823646  1
  H  H82  1  0.782004  0.997255  0.292674  1
  H  H83  1  0.782004  0.502745  0.792674  1
  H  H84  1  0.798926  0.980131  0.942699  1
  H  H85  1  0.798926  0.519869  0.442699  1
  H  H86  1  0.792674  0.717996  0.002745  1
  H  H87  1  0.792674  0.782004  0.502745  1
  H  H88  1  0.812890  0.969372  0.073677  1
  H  H89  1  0.812890  0.530628  0.573677  1
  H  H90  1  0.823646  0.715466  0.879999  1
  H  H91  1  0.823646  0.784534  0.379999  1
  H  H92  1  0.879999  0.676354  0.215466  1
  H  H93  1  0.879999  0.823646  0.715466  1
  H  H94  1  0.926323  0.187110  0.030628  1
  H  H95  1  0.926323  0.312890  0.530628  1
  H  H96  1  0.942699  0.798926  0.980131  1
  H  H97  1  0.942699  0.701074  0.480131  1
  H  H98  1  0.969372  0.073677  0.812890  1
  H  H99  1  0.969372  0.426323  0.312890  1
  H  H100  1  0.980131  0.942699  0.798926  1
  H  H101  1  0.980131  0.557301  0.298926  1
  H  H102  1  0.002745  0.707326  0.217996  1
  H  H103  1  0.002745  0.792674  0.717996  1
  S  S104  1  0.183634  0.683634  0.816366  1
  S  S105  1  0.183634  0.816366  0.316366  1
  S  S106  1  0.316366  0.183634  0.816366  1
  S  S107  1  0.316366  0.316366  0.316366  1
  S  S108  1  0.683634  0.683634  0.683634  1
  S  S109  1  0.683634  0.816366  0.183634  1
  S  S110  1  0.816366  0.183634  0.683634  1
  S  S111  1  0.816366  0.316366  0.183634  1
  O  O112  1  0.996157  0.992809  0.155055  1
  O  O113  1  0.996157  0.507191  0.655055  1
  O  O114  1  0.007191  0.655055  0.503843  1
  O  O115  1  0.007191  0.844945  0.003843  1
  O  O116  1  0.046910  0.144786  0.291713  1
  O  O117  1  0.046910  0.355214  0.791713  1
  O  O118  1  0.073958  0.826019  0.266650  1
  O  O119  1  0.073958  0.673981  0.766650  1
  O  O120  1  0.144786  0.291713  0.046910  1
  O  O121  1  0.144786  0.208287  0.546910  1
  O  O122  1  0.155055  0.996157  0.992809  1
  O  O123  1  0.155055  0.503843  0.492809  1
  O  O124  1  0.173981  0.766650  0.426042  1
  O  O125  1  0.173981  0.733350  0.926042  1
  O  O126  1  0.208287  0.546910  0.144786  1
  O  O127  1  0.208287  0.953090  0.644786  1
  O  O128  1  0.233350  0.573958  0.826019  1
  O  O129  1  0.233350  0.926042  0.326019  1
  O  O130  1  0.245837  0.245837  0.245837  1
  O  O131  1  0.245837  0.254163  0.745837  1
  O  O132  1  0.254163  0.745837  0.245837  1
  O  O133  1  0.254163  0.754163  0.745837  1
  O  O134  1  0.266650  0.073958  0.826019  1
  O  O135  1  0.266650  0.426042  0.326019  1
  O  O136  1  0.291713  0.046910  0.144786  1
  O  O137  1  0.291713  0.453090  0.644786  1
  O  O138  1  0.326019  0.266650  0.426042  1
  O  O139  1  0.326019  0.233350  0.926042  1
  O  O140  1  0.344945  0.496157  0.992809  1
  O  O141  1  0.344945  0.003843  0.492809  1
  O  O142  1  0.355214  0.708287  0.546910  1
  O  O143  1  0.355214  0.791713  0.046910  1
  O  O144  1  0.426042  0.326019  0.266650  1
  O  O145  1  0.426042  0.173981  0.766650  1
  O  O146  1  0.453090  0.644786  0.291713  1
  O  O147  1  0.453090  0.855214  0.791713  1
  O  O148  1  0.492809  0.155055  0.503843  1
  O  O149  1  0.492809  0.344945  0.003843  1
  O  O150  1  0.503843  0.492809  0.155055  1
  O  O151  1  0.503843  0.007191  0.655055  1
  O  O152  1  0.496157  0.992809  0.344945  1
  O  O153  1  0.496157  0.507191  0.844945  1
  O  O154  1  0.507191  0.655055  0.996157  1
  O  O155  1  0.507191  0.844945  0.496157  1
  O  O156  1  0.546910  0.144786  0.208287  1
  O  O157  1  0.546910  0.355214  0.708287  1
  O  O158  1  0.573958  0.826019  0.233350  1
  O  O159  1  0.573958  0.673981  0.733350  1
  O  O160  1  0.644786  0.208287  0.953090  1
  O  O161  1  0.644786  0.291713  0.453090  1
  O  O162  1  0.655055  0.996157  0.507191  1
  O  O163  1  0.655055  0.503843  0.007191  1
  O  O164  1  0.673981  0.733350  0.573958  1
  O  O165  1  0.673981  0.766650  0.073958  1
  O  O166  1  0.708287  0.953090  0.855214  1
  O  O167  1  0.708287  0.546910  0.355214  1
  O  O168  1  0.733350  0.573958  0.673981  1
  O  O169  1  0.733350  0.926042  0.173981  1
  O  O170  1  0.745837  0.245837  0.254163  1
  O  O171  1  0.745837  0.254163  0.754163  1
  O  O172  1  0.754163  0.745837  0.254163  1
  O  O173  1  0.754163  0.754163  0.754163  1
  O  O174  1  0.766650  0.073958  0.673981  1
  O  O175  1  0.766650  0.426042  0.173981  1
  O  O176  1  0.791713  0.046910  0.355214  1
  O  O177  1  0.791713  0.453090  0.855214  1
  O  O178  1  0.826019  0.233350  0.573958  1
  O  O179  1  0.826019  0.266650  0.073958  1
  O  O180  1  0.844945  0.496157  0.507191  1
  O  O181  1  0.844945  0.003843  0.007191  1
  O  O182  1  0.855214  0.708287  0.953090  1
  O  O183  1  0.855214  0.791713  0.453090  1
  O  O184  1  0.926042  0.173981  0.733350  1
  O  O185  1  0.926042  0.326019  0.233350  1
  O  O186  1  0.953090  0.644786  0.208287  1
  O  O187  1  0.953090  0.855214  0.708287  1
  O  O188  1  0.992809  0.155055  0.996157  1
  O  O189  1  0.992809  0.344945  0.496157  1
  O  O190  1  0.003843  0.007191  0.844945  1
  O  O191  1  0.003843  0.492809  0.344945  1
