# generated using pymatgen
data_Ba2LiFe2N3
_symmetry_space_group_name_H-M   'P 1'
_cell_length_a   6.80630484
_cell_length_b   6.80630484
_cell_length_c   6.79779506
_cell_angle_alpha   89.15592827
_cell_angle_beta   90.84407173
_cell_angle_gamma   60.52905616
_symmetry_Int_Tables_number   1
_chemical_formula_structural   Ba2LiFe2N3
_chemical_formula_sum   'Ba4 Li2 Fe4 N6'
_cell_volume   274.04795843
_cell_formula_units_Z   2
loop_
 _symmetry_equiv_pos_site_id
 _symmetry_equiv_pos_as_xyz
  1  'x, y, z'
loop_
 _atom_site_type_symbol
 _atom_site_label
 _atom_site_symmetry_multiplicity
 _atom_site_fract_x
 _atom_site_fract_y
 _atom_site_fract_z
 _atom_site_occupancy
  Ba  Ba0  1  0.319282  0.826122  0.899354  1
  Ba  Ba1  1  0.826122  0.319282  0.600646  1
  Ba  Ba2  1  0.680718  0.173878  0.100646  1
  Ba  Ba3  1  0.173878  0.680718  0.399354  1
  Li  Li4  1  0.807002  0.807002  0.750000  1
  Li  Li5  1  0.192998  0.192998  0.250000  1
  Fe  Fe6  1  0.839196  0.567915  0.101252  1
  Fe  Fe7  1  0.160804  0.432085  0.898748  1
  Fe  Fe8  1  0.567915  0.839196  0.398748  1
  Fe  Fe9  1  0.432085  0.160804  0.601252  1
  N  N10  1  0.396707  0.396707  0.750000  1
  N  N11  1  0.603293  0.603293  0.250000  1
  N  N12  1  0.287973  0.007147  0.504499  1
  N  N13  1  0.992853  0.712027  0.004499  1
  N  N14  1  0.712027  0.992853  0.495501  1
  N  N15  1  0.007147  0.287973  0.995501  1
