# generated using pymatgen
data_Ga2O3
_symmetry_space_group_name_H-M   'P 1'
_cell_length_a   6.41420528
_cell_length_b   6.41420528
_cell_length_c   5.87615337
_cell_angle_alpha   76.72487687
_cell_angle_beta   103.27512313
_cell_angle_gamma   152.18872933
_symmetry_Int_Tables_number   1
_chemical_formula_structural   Ga2O3
_chemical_formula_sum   'Ga4 O6'
_cell_volume   109.59278730
_cell_formula_units_Z   2
loop_
 _symmetry_equiv_pos_site_id
 _symmetry_equiv_pos_as_xyz
  1  'x, y, z'
loop_
 _atom_site_type_symbol
 _atom_site_label
 _atom_site_symmetry_multiplicity
 _atom_site_fract_x
 _atom_site_fract_y
 _atom_site_fract_z
 _atom_site_occupancy
  Ga  Ga0  1  0.658410  0.341590  0.314082  1
  Ga  Ga1  1  0.341590  0.658410  0.685918  1
  Ga  Ga2  1  0.089878  0.910122  0.794761  1
  Ga  Ga3  1  0.910122  0.089878  0.205239  1
  O  O4  1  0.495897  0.504103  0.256491  1
  O  O5  1  0.504103  0.495897  0.743509  1
  O  O6  1  0.173598  0.826402  0.564294  1
  O  O7  1  0.826402  0.173598  0.435706  1
  O  O8  1  0.836497  0.163503  0.891047  1
  O  O9  1  0.163503  0.836497  0.108953  1
