# generated using pymatgen
data_CrPO4
_symmetry_space_group_name_H-M   'P 1'
_cell_length_a   5.57789780
_cell_length_b   11.17098519
_cell_length_c   9.84195708
_cell_angle_alpha   90.00000000
_cell_angle_beta   91.78898254
_cell_angle_gamma   90.00000000
_symmetry_Int_Tables_number   1
_chemical_formula_structural   CrPO4
_chemical_formula_sum   'Cr8 P8 O32'
_cell_volume   612.95947249
_cell_formula_units_Z   8
loop_
 _symmetry_equiv_pos_site_id
 _symmetry_equiv_pos_as_xyz
  1  'x, y, z'
loop_
 _atom_site_type_symbol
 _atom_site_label
 _atom_site_symmetry_multiplicity
 _atom_site_fract_x
 _atom_site_fract_y
 _atom_site_fract_z
 _atom_site_occupancy
  Cr  Cr0  1  0.158702  0.096928  0.741770  1
  Cr  Cr1  1  0.158702  0.403072  0.241770  1
  Cr  Cr2  1  0.348134  0.621780  0.989583  1
  Cr  Cr3  1  0.348134  0.878220  0.489583  1
  Cr  Cr4  1  0.651866  0.121780  0.510417  1
  Cr  Cr5  1  0.651866  0.378220  0.010417  1
  Cr  Cr6  1  0.841298  0.596928  0.758230  1
  Cr  Cr7  1  0.841298  0.903072  0.258230  1
  P  P8  1  0.094797  0.361597  0.914442  1
  P  P9  1  0.094797  0.138403  0.414442  1
  P  P10  1  0.390711  0.613875  0.663739  1
  P  P11  1  0.390711  0.886125  0.163739  1
  P  P12  1  0.609289  0.113875  0.836261  1
  P  P13  1  0.609289  0.386125  0.336261  1
  P  P14  1  0.905203  0.861597  0.585558  1
  P  P15  1  0.905203  0.638403  0.085558  1
  O  O16  1  0.998908  0.164075  0.562668  1
  O  O17  1  0.130252  0.933001  0.644303  1
  O  O18  1  0.998908  0.335925  0.062668  1
  O  O19  1  0.130252  0.566999  0.144303  1
  O  O20  1  0.150938  0.550208  0.681974  1
  O  O21  1  0.147198  0.254318  0.832208  1
  O  O22  1  0.150938  0.949792  0.181974  1
  O  O23  1  0.147198  0.245682  0.332208  1
  O  O24  1  0.326566  0.441675  0.933096  1
  O  O25  1  0.326566  0.058325  0.433096  1
  O  O26  1  0.497208  0.656962  0.812853  1
  O  O27  1  0.497208  0.843038  0.312853  1
  O  O28  1  0.369326  0.719741  0.566632  1
  O  O29  1  0.397731  0.031000  0.873061  1
  O  O30  1  0.369326  0.780259  0.066632  1
  O  O31  1  0.397731  0.469000  0.373061  1
  O  O32  1  0.602269  0.531000  0.626939  1
  O  O33  1  0.630674  0.219741  0.933368  1
  O  O34  1  0.602269  0.969000  0.126939  1
  O  O35  1  0.630674  0.280259  0.433368  1
  O  O36  1  0.502792  0.156962  0.687147  1
  O  O37  1  0.502792  0.343038  0.187147  1
  O  O38  1  0.673434  0.941675  0.566904  1
  O  O39  1  0.673434  0.558325  0.066904  1
  O  O40  1  0.852802  0.754318  0.667792  1
  O  O41  1  0.849062  0.050208  0.818026  1
  O  O42  1  0.852802  0.745682  0.167792  1
  O  O43  1  0.849062  0.449792  0.318026  1
  O  O44  1  0.869748  0.433001  0.855697  1
  O  O45  1  0.001092  0.664075  0.937332  1
  O  O46  1  0.869748  0.066999  0.355697  1
  O  O47  1  0.001092  0.835925  0.437332  1
