# generated using pymatgen
data_Ti3Mn2Co(PO4)6
_symmetry_space_group_name_H-M   'P 1'
_cell_length_a   8.65672624
_cell_length_b   8.65672624
_cell_length_c   8.65672624
_cell_angle_alpha   60.04098583
_cell_angle_beta   60.04098583
_cell_angle_gamma   60.04098583
_symmetry_Int_Tables_number   1
_chemical_formula_structural   Ti3Mn2Co(PO4)6
_chemical_formula_sum   'Ti3 Mn2 Co1 P6 O24'
_cell_volume   459.14443978
_cell_formula_units_Z   1
loop_
 _symmetry_equiv_pos_site_id
 _symmetry_equiv_pos_as_xyz
  1  'x, y, z'
loop_
 _atom_site_type_symbol
 _atom_site_label
 _atom_site_symmetry_multiplicity
 _atom_site_fract_x
 _atom_site_fract_y
 _atom_site_fract_z
 _atom_site_occupancy
  Ti  Ti0  1  0.856086  0.856086  0.856086  1
  Ti  Ti1  1  0.645775  0.645775  0.645775  1
  Ti  Ti2  1  0.353198  0.353198  0.353198  1
  Mn  Mn3  1  0.003890  0.003890  0.003890  1
  Mn  Mn4  1  0.500529  0.500529  0.500529  1
  Co  Co5  1  0.144301  0.144301  0.144301  1
  P  P6  1  0.042836  0.749641  0.457657  1
  P  P7  1  0.749641  0.457657  0.042836  1
  P  P8  1  0.457657  0.042836  0.749641  1
  P  P9  1  0.541415  0.956096  0.248460  1
  P  P10  1  0.248460  0.541415  0.956096  1
  P  P11  1  0.956096  0.248460  0.541415  1
  O  O12  1  0.506226  0.880801  0.686493  1
  O  O13  1  0.880801  0.686493  0.506226  1
  O  O14  1  0.737214  0.941532  0.086080  1
  O  O15  1  0.686493  0.506226  0.880801  1
  O  O16  1  0.385777  0.987376  0.194086  1
  O  O17  1  0.564303  0.764183  0.416038  1
  O  O18  1  0.086080  0.737214  0.941532  1
  O  O19  1  0.416038  0.564303  0.764183  1
  O  O20  1  0.000095  0.806107  0.622514  1
  O  O21  1  0.764183  0.416038  0.564303  1
  O  O22  1  0.053831  0.909475  0.266885  1
  O  O23  1  0.806107  0.622514  0.000095  1
  O  O24  1  0.194086  0.385777  0.987376  1
  O  O25  1  0.941532  0.086080  0.737214  1
  O  O26  1  0.234746  0.582593  0.445762  1
  O  O27  1  0.987376  0.194086  0.385777  1
  O  O28  1  0.582593  0.445762  0.234746  1
  O  O29  1  0.909475  0.266885  0.053831  1
  O  O30  1  0.445762  0.234746  0.582593  1
  O  O31  1  0.622514  0.000095  0.806107  1
  O  O32  1  0.306615  0.499839  0.121543  1
  O  O33  1  0.266885  0.053831  0.909475  1
  O  O34  1  0.121543  0.306615  0.499839  1
  O  O35  1  0.499839  0.121543  0.306615  1
