# generated using pymatgen
data_Mn9Zn6Si4(SbO14)2
_symmetry_space_group_name_H-M   'P 1'
_cell_length_a   5.60434417
_cell_length_b   9.32202288
_cell_length_c   11.83127863
_cell_angle_alpha   86.82567632
_cell_angle_beta   76.35292800
_cell_angle_gamma   79.12103861
_symmetry_Int_Tables_number   1
_chemical_formula_structural   Mn9Zn6Si4(SbO14)2
_chemical_formula_sum   'Mn9 Zn6 Si4 Sb2 O28'
_cell_volume   589.82730912
_cell_formula_units_Z   1
loop_
 _symmetry_equiv_pos_site_id
 _symmetry_equiv_pos_as_xyz
  1  'x, y, z'
loop_
 _atom_site_type_symbol
 _atom_site_label
 _atom_site_symmetry_multiplicity
 _atom_site_fract_x
 _atom_site_fract_y
 _atom_site_fract_z
 _atom_site_occupancy
  Mn  Mn0  1  0.636696  0.650934  0.291867  1
  Mn  Mn1  1  0.000000  0.000000  0.000000  1
  Mn  Mn2  1  0.922057  0.641630  0.716586  1
  Mn  Mn3  1  0.279530  0.001702  0.425132  1
  Mn  Mn4  1  0.426375  0.005492  0.143961  1
  Mn  Mn5  1  0.573625  0.994508  0.856039  1
  Mn  Mn6  1  0.720470  0.998298  0.574868  1
  Mn  Mn7  1  0.077943  0.358370  0.283414  1
  Mn  Mn8  1  0.363304  0.349066  0.708133  1
  Zn  Zn9  1  0.658811  0.339740  0.137869  1
  Zn  Zn10  1  0.052296  0.673820  0.427425  1
  Zn  Zn11  1  0.203084  0.664613  0.138391  1
  Zn  Zn12  1  0.796916  0.335387  0.861609  1
  Zn  Zn13  1  0.947704  0.326180  0.572575  1
  Zn  Zn14  1  0.341189  0.660260  0.862131  1
  Si  Si15  1  0.757468  0.692066  0.003351  1
  Si  Si16  1  0.521298  0.312938  0.423532  1
  Si  Si17  1  0.478702  0.687062  0.576468  1
  Si  Si18  1  0.242532  0.307934  0.996649  1
  Sb  Sb19  1  0.138619  0.998561  0.719816  1
  Sb  Sb20  1  0.861381  0.001439  0.280184  1
  O  O21  1  0.586334  0.887523  0.291019  1
  O  O22  1  0.407107  0.870643  0.588930  1
  O  O23  1  0.690932  0.872471  0.004584  1
  O  O24  1  0.669307  0.389093  0.303411  1
  O  O25  1  0.390853  0.650801  0.460215  1
  O  O26  1  0.731535  0.117942  0.152331  1
  O  O27  1  0.581714  0.626086  0.121375  1
  O  O28  1  0.939954  0.354926  0.000604  1
  O  O29  1  0.219689  0.358965  0.436014  1
  O  O30  1  0.883497  0.875666  0.714147  1
  O  O31  1  0.981664  0.407788  0.714865  1
  O  O32  1  0.118378  0.885878  0.153928  1
  O  O33  1  0.311341  0.367220  0.112465  1
  O  O34  1  0.969058  0.894059  0.417452  1
  O  O35  1  0.030942  0.105941  0.582548  1
  O  O36  1  0.688659  0.632780  0.887535  1
  O  O37  1  0.881622  0.114122  0.846072  1
  O  O38  1  0.018336  0.592212  0.285135  1
  O  O39  1  0.116503  0.124334  0.285853  1
  O  O40  1  0.780311  0.641035  0.563986  1
  O  O41  1  0.060046  0.645074  0.999396  1
  O  O42  1  0.418286  0.373914  0.878625  1
  O  O43  1  0.268465  0.882058  0.847669  1
  O  O44  1  0.609147  0.349199  0.539785  1
  O  O45  1  0.330693  0.610907  0.696589  1
  O  O46  1  0.309068  0.127529  0.995416  1
  O  O47  1  0.592893  0.129357  0.411070  1
  O  O48  1  0.413666  0.112477  0.708981  1
