# generated using pymatgen
data_V3Co5O16
_symmetry_space_group_name_H-M   'P 1'
_cell_length_a   5.64780903
_cell_length_b   5.64780903
_cell_length_c   8.79226269
_cell_angle_alpha   89.68432307
_cell_angle_beta   90.31567693
_cell_angle_gamma   119.20698266
_symmetry_Int_Tables_number   1
_chemical_formula_structural   V3Co5O16
_chemical_formula_sum   'V3 Co5 O16'
_cell_volume   244.79226757
_cell_formula_units_Z   1
loop_
 _symmetry_equiv_pos_site_id
 _symmetry_equiv_pos_as_xyz
  1  'x, y, z'
loop_
 _atom_site_type_symbol
 _atom_site_label
 _atom_site_symmetry_multiplicity
 _atom_site_fract_x
 _atom_site_fract_y
 _atom_site_fract_z
 _atom_site_occupancy
  V  V0  1  0.152266  0.847734  0.787414  1
  V  V1  1  0.326905  0.169779  0.290869  1
  V  V2  1  0.830221  0.673095  0.290869  1
  Co  Co3  1  0.167083  0.340575  0.792994  1
  Co  Co4  1  0.335972  0.664028  0.522887  1
  Co  Co5  1  0.659425  0.832917  0.792994  1
  Co  Co6  1  0.830855  0.169145  0.288400  1
  Co  Co7  1  0.669486  0.330514  0.016389  1
  O  O8  1  0.185378  0.339168  0.399655  1
  O  O9  1  0.478209  0.521791  0.669068  1
  O  O10  1  0.332160  0.667840  0.899954  1
  O  O11  1  0.996259  0.003741  0.673603  1
  O  O12  1  0.001819  0.998181  0.175576  1
  O  O13  1  0.660832  0.814622  0.399655  1
  O  O14  1  0.045725  0.522652  0.661723  1
  O  O15  1  0.477348  0.954275  0.661723  1
  O  O16  1  0.836485  0.163515  0.895706  1
  O  O17  1  0.171949  0.828051  0.393755  1
  O  O18  1  0.524569  0.046646  0.160622  1
  O  O19  1  0.953354  0.475431  0.160622  1
  O  O20  1  0.665986  0.334014  0.401983  1
  O  O21  1  0.340177  0.164099  0.896358  1
  O  O22  1  0.521463  0.478537  0.155271  1
  O  O23  1  0.835901  0.659823  0.896358  1
