# generated using pymatgen
data_V3(O2F)2
_symmetry_space_group_name_H-M   'P 1'
_cell_length_a   5.58295624
_cell_length_b   5.59124321
_cell_length_c   7.30419975
_cell_angle_alpha   72.89203570
_cell_angle_beta   72.08332772
_cell_angle_gamma   72.54313994
_symmetry_Int_Tables_number   1
_chemical_formula_structural   V3(O2F)2
_chemical_formula_sum   'V6 O8 F4'
_cell_volume   201.77226853
_cell_formula_units_Z   2
loop_
 _symmetry_equiv_pos_site_id
 _symmetry_equiv_pos_as_xyz
  1  'x, y, z'
loop_
 _atom_site_type_symbol
 _atom_site_label
 _atom_site_symmetry_multiplicity
 _atom_site_fract_x
 _atom_site_fract_y
 _atom_site_fract_z
 _atom_site_occupancy
  V  V0  1  0.500000  0.500000  0.500000  1
  V  V1  1  0.202891  0.132230  0.351646  1
  V  V2  1  0.500000  0.500000  0.000000  1
  V  V3  1  0.151033  0.144674  0.833887  1
  V  V4  1  0.848967  0.855326  0.166113  1
  V  V5  1  0.797109  0.867770  0.648354  1
  O  O6  1  0.195963  0.793119  0.002356  1
  O  O7  1  0.064465  0.055936  0.625881  1
  O  O8  1  0.392488  0.390459  0.305173  1
  O  O9  1  0.935535  0.944064  0.374119  1
  O  O10  1  0.607512  0.609541  0.694827  1
  O  O11  1  0.475703  0.860838  0.329083  1
  O  O12  1  0.804037  0.206881  0.997644  1
  O  O13  1  0.524297  0.139162  0.670917  1
  F  F14  1  0.877875  0.463675  0.327649  1
  F  F15  1  0.737836  0.743932  0.956401  1
  F  F16  1  0.262164  0.256068  0.043599  1
  F  F17  1  0.122125  0.536325  0.672351  1
