# generated using pymatgen
data_Li2MnVP2(HO5)2
_symmetry_space_group_name_H-M   'P 1'
_cell_length_a   5.46098445
_cell_length_b   7.44473565
_cell_length_c   14.55657974
_cell_angle_alpha   95.60964937
_cell_angle_beta   91.23907122
_cell_angle_gamma   110.91957002
_symmetry_Int_Tables_number   1
_chemical_formula_structural   Li2MnVP2(HO5)2
_chemical_formula_sum   'Li6 Mn3 V3 P6 H6 O30'
_cell_volume   549.13053453
_cell_formula_units_Z   3
loop_
 _symmetry_equiv_pos_site_id
 _symmetry_equiv_pos_as_xyz
  1  'x, y, z'
loop_
 _atom_site_type_symbol
 _atom_site_label
 _atom_site_symmetry_multiplicity
 _atom_site_fract_x
 _atom_site_fract_y
 _atom_site_fract_z
 _atom_site_occupancy
  Li  Li0  1  0.261638  0.865308  0.693767  1
  Li  Li1  1  0.067600  0.466780  0.641690  1
  Li  Li2  1  0.404095  0.796963  0.974079  1
  Li  Li3  1  0.601055  0.203476  0.024834  1
  Li  Li4  1  0.931527  0.532679  0.359394  1
  Li  Li5  1  0.735184  0.133429  0.306887  1
  Mn  Mn6  1  0.335511  0.335410  0.834783  1
  Mn  Mn7  1  0.333172  0.333643  0.333378  1
  Mn  Mn8  1  0.668108  0.667989  0.666369  1
  V  V9  1  0.662393  0.663872  0.165850  1
  V  V10  1  0.999909  0.000073  0.500150  1
  V  V11  1  0.000601  0.999090  0.999215  1
  P  P12  1  0.013518  0.379997  0.148538  1
  P  P13  1  0.311291  0.951779  0.184408  1
  P  P14  1  0.349363  0.715660  0.481840  1
  P  P15  1  0.651049  0.284967  0.517981  1
  P  P16  1  0.683393  0.047549  0.814134  1
  P  P17  1  0.988613  0.619174  0.852580  1
  H  H18  1  0.052894  0.989748  0.326632  1
  H  H19  1  0.284656  0.347029  0.007946  1
  H  H20  1  0.388273  0.325418  0.658687  1
  H  H21  1  0.615034  0.677060  0.341030  1
  H  H22  1  0.715175  0.652559  0.991778  1
  H  H23  1  0.946406  0.010313  0.674506  1
  O  O24  1  0.090749  0.830371  0.901104  1
  O  O25  1  0.039048  0.837759  0.218548  1
  O  O26  1  0.141079  0.798436  0.448661  1
  O  O27  1  0.204641  0.540732  0.884585  1
  O  O28  1  0.296479  0.955815  0.077338  1
  O  O29  1  0.020185  0.375369  0.254214  1
  O  O30  1  0.355595  0.712741  0.587526  1
  O  O31  1  0.248038  0.504903  0.432629  1
  O  O32  1  0.050931  0.100489  0.370264  1
  O  O33  1  0.287770  0.494471  0.115074  1
  O  O34  1  0.285756  0.237866  0.962917  1
  O  O35  1  0.577552  0.836194  0.765860  1
  O  O36  1  0.522428  0.869485  0.213978  1
  O  O37  1  0.388019  0.435372  0.703447  1
  O  O38  1  0.624956  0.828583  0.448379  1
  O  O39  1  0.375483  0.171368  0.551113  1
  O  O40  1  0.615100  0.566486  0.296775  1
  O  O41  1  0.464991  0.126592  0.787286  1
  O  O42  1  0.416253  0.162450  0.232876  1
  O  O43  1  0.719514  0.762073  0.037780  1
  O  O44  1  0.720604  0.507378  0.889014  1
  O  O45  1  0.948589  0.899979  0.630095  1
  O  O46  1  0.752196  0.495603  0.567044  1
  O  O47  1  0.644925  0.288374  0.412070  1
  O  O48  1  0.977908  0.623256  0.746885  1
  O  O49  1  0.704813  0.042371  0.921300  1
  O  O50  1  0.803744  0.461654  0.115917  1
  O  O51  1  0.858983  0.201935  0.550973  1
  O  O52  1  0.949379  0.161043  0.777354  1
  O  O53  1  0.913839  0.170887  0.098544  1
