# generated using pymatgen
data_Li3V3P8O29
_symmetry_space_group_name_H-M   'P 1'
_cell_length_a   9.73099823
_cell_length_b   9.73099823
_cell_length_c   14.36812878
_cell_angle_alpha   89.01899607
_cell_angle_beta   90.98100393
_cell_angle_gamma   119.52073369
_symmetry_Int_Tables_number   1
_chemical_formula_structural   Li3V3P8O29
_chemical_formula_sum   'Li6 V6 P16 O58'
_cell_volume   1183.68875857
_cell_formula_units_Z   2
loop_
 _symmetry_equiv_pos_site_id
 _symmetry_equiv_pos_as_xyz
  1  'x, y, z'
loop_
 _atom_site_type_symbol
 _atom_site_label
 _atom_site_symmetry_multiplicity
 _atom_site_fract_x
 _atom_site_fract_y
 _atom_site_fract_z
 _atom_site_occupancy
  Li  Li0  1  0.676865  0.772232  0.942445  1
  Li  Li1  1  0.227768  0.323135  0.442445  1
  Li  Li2  1  0.914251  0.679956  0.060025  1
  Li  Li3  1  0.320044  0.085749  0.560025  1
  Li  Li4  1  0.069991  0.077840  0.009376  1
  Li  Li5  1  0.922160  0.930009  0.509376  1
  V  V6  1  0.566089  0.563022  0.747140  1
  V  V7  1  0.436978  0.433911  0.247140  1
  V  V8  1  0.003234  0.562018  0.253267  1
  V  V9  1  0.998394  0.435066  0.748704  1
  V  V10  1  0.437982  0.996766  0.753267  1
  V  V11  1  0.564934  0.001606  0.248704  1
  P  P12  1  0.215945  0.917131  0.162907  1
  P  P13  1  0.082869  0.784055  0.662907  1
  P  P14  1  0.693539  0.916872  0.657295  1
  P  P15  1  0.334318  0.662300  0.866628  1
  P  P16  1  0.337700  0.665682  0.366628  1
  P  P17  1  0.683441  0.774597  0.158322  1
  P  P18  1  0.777549  0.688231  0.337772  1
  P  P19  1  0.083128  0.306461  0.157295  1
  P  P20  1  0.913142  0.685915  0.844191  1
  P  P21  1  0.225403  0.316559  0.658322  1
  P  P22  1  0.311769  0.222451  0.837772  1
  P  P23  1  0.662646  0.330033  0.632782  1
  P  P24  1  0.669967  0.337354  0.132782  1
  P  P25  1  0.314085  0.086858  0.344191  1
  P  P26  1  0.914416  0.215375  0.338281  1
  P  P27  1  0.784625  0.085584  0.838281  1
  O  O28  1  0.243129  0.018700  0.435944  1
  O  O29  1  0.260063  0.917970  0.665506  1
  O  O30  1  0.981300  0.756871  0.935944  1
  O  O31  1  0.082030  0.739937  0.165506  1
  O  O32  1  0.379477  0.924875  0.172324  1
  O  O33  1  0.337445  0.813124  0.818279  1
  O  O34  1  0.539510  0.924303  0.670408  1
  O  O35  1  0.794387  0.996815  0.920876  1
  O  O36  1  0.655266  0.916924  0.164918  1
  O  O37  1  0.186876  0.662555  0.318279  1
  O  O38  1  0.075125  0.620523  0.672324  1
  O  O39  1  0.478460  0.813106  0.318864  1
  O  O40  1  0.333070  0.669069  0.969355  1
  O  O41  1  0.330931  0.666930  0.469355  1
  O  O42  1  0.487069  0.667268  0.829539  1
  O  O43  1  0.075697  0.460490  0.170408  1
  O  O44  1  0.186894  0.521540  0.818864  1
  O  O45  1  0.651232  0.740622  0.672578  1
  O  O46  1  0.799077  0.791398  0.243252  1
  O  O47  1  0.792234  0.782400  0.419994  1
  O  O48  1  0.759054  0.767985  0.069573  1
  O  O49  1  0.524103  0.620394  0.175800  1
  O  O50  1  0.332732  0.512931  0.329539  1
  O  O51  1  0.741145  0.658439  0.835135  1
  O  O52  1  0.379606  0.475897  0.675800  1
  O  O53  1  0.083076  0.344734  0.664918  1
  O  O54  1  0.010508  0.803663  0.760329  1
  O  O55  1  0.000905  0.809207  0.582634  1
  O  O56  1  0.003185  0.205613  0.420876  1
  O  O57  1  0.912922  0.647352  0.329500  1
  O  O58  1  0.617752  0.533842  0.325665  1
  O  O59  1  0.259378  0.348768  0.172578  1
  O  O60  1  0.661721  0.477255  0.680296  1
  O  O61  1  0.466158  0.382248  0.825665  1
  O  O62  1  0.217600  0.207766  0.919994  1
  O  O63  1  0.232015  0.240946  0.569573  1
  O  O64  1  0.208602  0.200923  0.743252  1
  O  O65  1  0.341561  0.258855  0.335135  1
  O  O66  1  0.817040  0.488060  0.172378  1
  O  O67  1  0.911377  0.528418  0.824457  1
  O  O68  1  0.522745  0.338279  0.180296  1
  O  O69  1  0.661816  0.339816  0.029919  1
  O  O70  1  0.660184  0.338184  0.529919  1
  O  O71  1  0.511940  0.182960  0.672378  1
  O  O72  1  0.917517  0.377224  0.325737  1
  O  O73  1  0.811336  0.332103  0.678491  1
  O  O74  1  0.352648  0.087078  0.829500  1
  O  O75  1  0.196337  0.989492  0.260329  1
  O  O76  1  0.190793  0.999095  0.082634  1
  O  O77  1  0.471582  0.088623  0.324457  1
  O  O78  1  0.667897  0.188664  0.178491  1
  O  O79  1  0.622776  0.082483  0.825737  1
  O  O80  1  0.918727  0.259636  0.832390  1
  O  O81  1  0.015646  0.217041  0.071123  1
  O  O82  1  0.994095  0.195604  0.245855  1
  O  O83  1  0.740364  0.081273  0.332390  1
  O  O84  1  0.782959  0.984354  0.571123  1
  O  O85  1  0.804396  0.005905  0.745855  1
