# generated using pymatgen
data_LiMgB3(H9N)2
_symmetry_space_group_name_H-M   'P 1'
_cell_length_a   7.69744888
_cell_length_b   7.69744888
_cell_length_c   7.84838437
_cell_angle_alpha   90.00000000
_cell_angle_beta   90.00000000
_cell_angle_gamma   120.00000000
_symmetry_Int_Tables_number   1
_chemical_formula_structural   LiMgB3(H9N)2
_chemical_formula_sum   'Li2 Mg2 B6 H36 N4'
_cell_volume   402.72122866
_cell_formula_units_Z   2
loop_
 _symmetry_equiv_pos_site_id
 _symmetry_equiv_pos_as_xyz
  1  'x, y, z'
loop_
 _atom_site_type_symbol
 _atom_site_label
 _atom_site_symmetry_multiplicity
 _atom_site_fract_x
 _atom_site_fract_y
 _atom_site_fract_z
 _atom_site_occupancy
  Li  Li0  1  0.000000  0.000000  0.208106  1
  Li  Li1  1  0.000000  0.000000  0.708106  1
  Mg  Mg2  1  0.666667  0.333333  0.477446  1
  Mg  Mg3  1  0.333333  0.666667  0.977446  1
  B  B4  1  0.950548  0.255075  0.471147  1
  B  B5  1  0.744925  0.695473  0.471147  1
  B  B6  1  0.304527  0.049452  0.471147  1
  B  B7  1  0.049452  0.744925  0.971147  1
  B  B8  1  0.255075  0.304527  0.971147  1
  B  B9  1  0.695473  0.950548  0.971147  1
  H  H10  1  0.954483  0.753781  0.092681  1
  H  H11  1  0.799298  0.045517  0.092681  1
  H  H12  1  0.246219  0.200702  0.092681  1
  H  H13  1  0.695335  0.226449  0.156904  1
  H  H14  1  0.773551  0.468886  0.156904  1
  H  H15  1  0.531114  0.304665  0.156904  1
  H  H16  1  0.318179  0.782158  0.297558  1
  H  H17  1  0.217842  0.536020  0.297558  1
  H  H18  1  0.463980  0.681821  0.297558  1
  H  H19  1  0.016433  0.234155  0.335391  1
  H  H20  1  0.217722  0.983567  0.335391  1
  H  H21  1  0.765845  0.782278  0.335391  1
  H  H22  1  0.974210  0.426123  0.471776  1
  H  H23  1  0.451913  0.025790  0.471776  1
  H  H24  1  0.573877  0.548087  0.471776  1
  H  H25  1  0.773067  0.126306  0.485144  1
  H  H26  1  0.873694  0.646761  0.485144  1
  H  H27  1  0.353239  0.226933  0.485144  1
  H  H28  1  0.045517  0.246219  0.592681  1
  H  H29  1  0.200702  0.954483  0.592681  1
  H  H30  1  0.753781  0.799298  0.592681  1
  H  H31  1  0.304665  0.773551  0.656904  1
  H  H32  1  0.226449  0.531114  0.656904  1
  H  H33  1  0.468886  0.695335  0.656904  1
  H  H34  1  0.681821  0.217842  0.797558  1
  H  H35  1  0.782158  0.463980  0.797558  1
  H  H36  1  0.536020  0.318179  0.797558  1
  H  H37  1  0.983567  0.765845  0.835391  1
  H  H38  1  0.782278  0.016433  0.835391  1
  H  H39  1  0.234155  0.217722  0.835391  1
  H  H40  1  0.025790  0.573877  0.971776  1
  H  H41  1  0.548087  0.974210  0.971776  1
  H  H42  1  0.426123  0.451913  0.971776  1
  H  H43  1  0.226933  0.873694  0.985144  1
  H  H44  1  0.126306  0.353239  0.985144  1
  H  H45  1  0.646761  0.773067  0.985144  1
  N  N46  1  0.666667  0.333333  0.206520  1
  N  N47  1  0.333333  0.666667  0.248128  1
  N  N48  1  0.333333  0.666667  0.706520  1
  N  N49  1  0.666667  0.333333  0.748128  1
