# generated using pymatgen
data_Li2Mn3(SiO4)2
_symmetry_space_group_name_H-M   'P 1'
_cell_length_a   5.12390817
_cell_length_b   9.06894941
_cell_length_c   13.64535778
_cell_angle_alpha   108.41403691
_cell_angle_beta   100.36917652
_cell_angle_gamma   90.49256608
_symmetry_Int_Tables_number   1
_chemical_formula_structural   Li2Mn3(SiO4)2
_chemical_formula_sum   'Li6 Mn9 Si6 O24'
_cell_volume   590.33079467
_cell_formula_units_Z   3
loop_
 _symmetry_equiv_pos_site_id
 _symmetry_equiv_pos_as_xyz
  1  'x, y, z'
loop_
 _atom_site_type_symbol
 _atom_site_label
 _atom_site_symmetry_multiplicity
 _atom_site_fract_x
 _atom_site_fract_y
 _atom_site_fract_z
 _atom_site_occupancy
  Li  Li0  1  0.439974  0.359764  0.767018  1
  Li  Li1  1  0.390266  0.627806  0.685819  1
  Li  Li2  1  0.256788  0.527943  0.467051  1
  Li  Li3  1  0.485555  0.096452  0.853248  1
  Li  Li4  1  0.724990  0.341525  0.360100  1
  Li  Li5  1  0.607322  0.224092  0.097667  1
  Mn  Mn6  1  0.012614  0.009823  0.999053  1
  Mn  Mn7  1  0.281406  0.218080  0.498684  1
  Mn  Mn8  1  0.199029  0.451019  0.186809  1
  Mn  Mn9  1  0.283355  0.858611  0.342202  1
  Mn  Mn10  1  0.932219  0.600462  0.837969  1
  Mn  Mn11  1  0.596967  0.521682  0.030498  1
  Mn  Mn12  1  0.680997  0.928709  0.190047  1
  Mn  Mn13  1  0.927918  0.125490  0.689332  1
  Mn  Mn14  1  0.849932  0.714561  0.535602  1
  Si  Si15  1  0.030374  0.310648  0.933188  1
  Si  Si16  1  0.491453  0.797606  0.938419  1
  Si  Si17  1  0.187078  0.156614  0.253888  1
  Si  Si18  1  0.382544  0.931735  0.598331  1
  Si  Si19  1  0.832181  0.415808  0.596832  1
  Si  Si20  1  0.759928  0.634142  0.282734  1
  O  O21  1  0.045864  0.548024  0.590760  1
  O  O22  1  0.023000  0.272281  0.608003  1
  O  O23  1  0.180355  0.241679  0.832488  1
  O  O24  1  0.075417  0.918792  0.616291  1
  O  O25  1  0.379417  0.972946  0.961187  1
  O  O26  1  0.060828  0.235361  0.359390  1
  O  O27  1  0.321054  0.652257  0.840514  1
  O  O28  1  0.387518  0.994695  0.496610  1
  O  O29  1  0.391428  0.277768  0.230826  1
  O  O30  1  0.481574  0.752216  0.572841  1
  O  O31  1  0.553207  0.065793  0.703747  1
  O  O32  1  0.366057  0.009898  0.263847  1
  O  O33  1  0.280325  0.378810  0.035270  1
  O  O34  1  0.438515  0.647348  0.279711  1
  O  O35  1  0.785732  0.810088  0.907551  1
  O  O36  1  0.588700  0.369593  0.492243  1
  O  O37  1  0.679269  0.474125  0.698617  1
  O  O38  1  0.834319  0.449806  0.917092  1
  O  O39  1  0.830453  0.188155  0.956053  1
  O  O40  1  0.528070  0.751701  0.048885  1
  O  O41  1  0.909221  0.585130  0.383638  1
  O  O42  1  0.800019  0.494717  0.173247  1
  O  O43  1  0.878964  0.804012  0.283463  1
  O  O44  1  0.924907  0.090131  0.154035  1
