# generated using pymatgen
data_CsSi
_symmetry_space_group_name_H-M   'P 1'
_cell_length_a   12.36411829
_cell_length_b   12.36411829
_cell_length_c   12.36411829
_cell_angle_alpha   124.69543991
_cell_angle_beta   124.69543991
_cell_angle_gamma   82.04309819
_symmetry_Int_Tables_number   1
_chemical_formula_structural   CsSi
_chemical_formula_sum   'Cs16 Si16'
_cell_volume   1228.62334008
_cell_formula_units_Z   16
loop_
 _symmetry_equiv_pos_site_id
 _symmetry_equiv_pos_as_xyz
  1  'x, y, z'
loop_
 _atom_site_type_symbol
 _atom_site_label
 _atom_site_symmetry_multiplicity
 _atom_site_fract_x
 _atom_site_fract_y
 _atom_site_fract_z
 _atom_site_occupancy
  Cs  Cs0  1  0.625000  0.234474  0.109474  1
  Cs  Cs1  1  0.125000  0.515526  0.890526  1
  Cs  Cs2  1  0.984474  0.375000  0.109474  1
  Cs  Cs3  1  0.265526  0.875000  0.890526  1
  Cs  Cs4  1  0.484474  0.375000  0.609474  1
  Cs  Cs5  1  0.765526  0.875000  0.390526  1
  Cs  Cs6  1  0.625000  0.734474  0.609474  1
  Cs  Cs7  1  0.125000  0.015526  0.390526  1
  Cs  Cs8  1  0.120881  0.379119  0.500000  1
  Cs  Cs9  1  0.879119  0.620881  0.500000  1
  Cs  Cs10  1  0.370881  0.370881  0.241762  1
  Cs  Cs11  1  0.129119  0.129119  0.758238  1
  Cs  Cs12  1  0.629119  0.870881  0.000000  1
  Cs  Cs13  1  0.870881  0.629119  1.000000  1
  Cs  Cs14  1  0.379119  0.879119  0.258238  1
  Cs  Cs15  1  0.620881  0.120881  0.741762  1
  Si  Si16  1  0.352671  0.885687  0.646686  1
  Si  Si17  1  0.239001  0.705985  0.353314  1
  Si  Si18  1  0.010999  0.864313  0.966984  1
  Si  Si19  1  0.897329  0.044015  0.033016  1
  Si  Si20  1  0.794015  0.260999  0.646686  1
  Si  Si21  1  0.614313  0.147329  0.353314  1
  Si  Si22  1  0.455985  0.602671  0.966984  1
  Si  Si23  1  0.635687  0.489001  0.033016  1
  Si  Si24  1  0.397329  0.364313  0.853314  1
  Si  Si25  1  0.510999  0.544015  0.146686  1
  Si  Si26  1  0.739001  0.385687  0.533016  1
  Si  Si27  1  0.852671  0.205985  0.466984  1
  Si  Si28  1  0.955985  0.989001  0.853314  1
  Si  Si29  1  0.135687  0.102671  0.146686  1
  Si  Si30  1  0.294015  0.647329  0.533016  1
  Si  Si31  1  0.114313  0.760999  0.466984  1
