# generated using pymatgen
data_LiReO3
_symmetry_space_group_name_H-M   'P 1'
_cell_length_a   5.42687190
_cell_length_b   5.42687190
_cell_length_c   5.42687190
_cell_angle_alpha   56.53744544
_cell_angle_beta   56.53744544
_cell_angle_gamma   56.53744544
_symmetry_Int_Tables_number   1
_chemical_formula_structural   LiReO3
_chemical_formula_sum   'Li2 Re2 O6'
_cell_volume   103.97122102
_cell_formula_units_Z   2
loop_
 _symmetry_equiv_pos_site_id
 _symmetry_equiv_pos_as_xyz
  1  'x, y, z'
loop_
 _atom_site_type_symbol
 _atom_site_label
 _atom_site_symmetry_multiplicity
 _atom_site_fract_x
 _atom_site_fract_y
 _atom_site_fract_z
 _atom_site_occupancy
  Li  Li0  1  0.217855  0.217855  0.217855  1
  Li  Li1  1  0.717855  0.717855  0.717855  1
  Re  Re2  1  0.502737  0.502737  0.502737  1
  Re  Re3  1  0.002737  0.002737  0.002737  1
  O  O4  1  0.867420  0.640757  0.260231  1
  O  O5  1  0.260231  0.867420  0.640757  1
  O  O6  1  0.367420  0.760231  0.140757  1
  O  O7  1  0.140757  0.367420  0.760231  1
  O  O8  1  0.760231  0.140757  0.367420  1
  O  O9  1  0.640757  0.260231  0.867420  1
