# generated using pymatgen
data_Si3NiP4
_symmetry_space_group_name_H-M   'P 1'
_cell_length_a   6.38215880
_cell_length_b   6.38215880
_cell_length_c   6.38215880
_cell_angle_alpha   131.88499711
_cell_angle_beta   131.88499711
_cell_angle_gamma   70.41072220
_symmetry_Int_Tables_number   1
_chemical_formula_structural   Si3NiP4
_chemical_formula_sum   'Si3 Ni1 P4'
_cell_volume   141.19361587
_cell_formula_units_Z   1
loop_
 _symmetry_equiv_pos_site_id
 _symmetry_equiv_pos_as_xyz
  1  'x, y, z'
loop_
 _atom_site_type_symbol
 _atom_site_label
 _atom_site_symmetry_multiplicity
 _atom_site_fract_x
 _atom_site_fract_y
 _atom_site_fract_z
 _atom_site_occupancy
  Si  Si0  1  0.250000  0.750000  0.500000  1
  Si  Si1  1  0.500000  0.500000  1.000000  1
  Si  Si2  1  0.750000  0.250000  0.500000  1
  Ni  Ni3  1  0.000000  0.000000  0.000000  1
  P  P4  1  0.639564  0.639564  0.516435  1
  P  P5  1  0.123129  0.123129  0.483565  1
  P  P6  1  0.876871  0.360436  1.000000  1
  P  P7  1  0.360436  0.876871  1.000000  1
