# generated using pymatgen
data_SmNiGe3
_symmetry_space_group_name_H-M   'P 1'
_cell_length_a   11.10738030
_cell_length_b   11.10738030
_cell_length_c   4.14318644
_cell_angle_alpha   90.00000000
_cell_angle_beta   90.00000000
_cell_angle_gamma   158.52448359
_symmetry_Int_Tables_number   1
_chemical_formula_structural   SmNiGe3
_chemical_formula_sum   'Sm2 Ni2 Ge6'
_cell_volume   187.13790726
_cell_formula_units_Z   2
loop_
 _symmetry_equiv_pos_site_id
 _symmetry_equiv_pos_as_xyz
  1  'x, y, z'
loop_
 _atom_site_type_symbol
 _atom_site_label
 _atom_site_symmetry_multiplicity
 _atom_site_fract_x
 _atom_site_fract_y
 _atom_site_fract_z
 _atom_site_occupancy
  Sm  Sm0  1  0.168882  0.831118  0.500000  1
  Sm  Sm1  1  0.831118  0.168882  0.500000  1
  Ni  Ni2  1  0.390353  0.609647  1.000000  1
  Ni  Ni3  1  0.609647  0.390353  0.000000  1
  Ge  Ge4  1  0.942930  0.057070  1.000000  1
  Ge  Ge5  1  0.057070  0.942930  1.000000  1
  Ge  Ge6  1  0.716308  0.283692  0.000000  1
  Ge  Ge7  1  0.283692  0.716308  1.000000  1
  Ge  Ge8  1  0.557017  0.442983  0.500000  1
  Ge  Ge9  1  0.442983  0.557017  0.500000  1
