# generated using pymatgen
data_V3(O2F)2
_symmetry_space_group_name_H-M   'P 1'
_cell_length_a   5.60694478
_cell_length_b   5.60694478
_cell_length_c   7.54967431
_cell_angle_alpha   70.01634497
_cell_angle_beta   109.98365503
_cell_angle_gamma   110.23133188
_symmetry_Int_Tables_number   1
_chemical_formula_structural   V3(O2F)2
_chemical_formula_sum   'V6 O8 F4'
_cell_volume   202.45480851
_cell_formula_units_Z   2
loop_
 _symmetry_equiv_pos_site_id
 _symmetry_equiv_pos_as_xyz
  1  'x, y, z'
loop_
 _atom_site_type_symbol
 _atom_site_label
 _atom_site_symmetry_multiplicity
 _atom_site_fract_x
 _atom_site_fract_y
 _atom_site_fract_z
 _atom_site_occupancy
  V  V0  1  0.678900  0.321100  0.144442  1
  V  V1  1  0.333679  0.666321  0.336847  1
  V  V2  1  0.662063  0.337937  0.677104  1
  V  V3  1  0.344734  0.655266  0.807934  1
  V  V4  1  0.998004  0.001996  0.503946  1
  V  V5  1  0.995044  0.004956  0.003734  1
  O  O6  1  0.633084  0.974287  0.331650  1
  O  O7  1  0.973832  0.634985  0.671375  1
  O  O8  1  0.767815  0.232185  0.971201  1
  O  O9  1  0.431334  0.568666  0.633070  1
  O  O10  1  0.692731  0.693462  0.001176  1
  O  O11  1  0.025713  0.366916  0.331650  1
  O  O12  1  0.365015  0.026168  0.671375  1
  O  O13  1  0.306538  0.307269  0.001176  1
  F  F14  1  0.229279  0.770721  0.036381  1
  F  F15  1  0.566475  0.433525  0.371334  1
  F  F16  1  0.896370  0.103630  0.705431  1
  F  F17  1  0.099391  0.900609  0.300171  1
