# generated using pymatgen
data_Co3OF5
_symmetry_space_group_name_H-M   'P 1'
_cell_length_a   4.71915293
_cell_length_b   5.69472078
_cell_length_c   7.90528282
_cell_angle_alpha   87.35846986
_cell_angle_beta   88.53202943
_cell_angle_gamma   88.27782366
_symmetry_Int_Tables_number   1
_chemical_formula_structural   Co3OF5
_chemical_formula_sum   'Co6 O2 F10'
_cell_volume   212.06452588
_cell_formula_units_Z   2
loop_
 _symmetry_equiv_pos_site_id
 _symmetry_equiv_pos_as_xyz
  1  'x, y, z'
loop_
 _atom_site_type_symbol
 _atom_site_label
 _atom_site_symmetry_multiplicity
 _atom_site_fract_x
 _atom_site_fract_y
 _atom_site_fract_z
 _atom_site_occupancy
  Co  Co0  1  0.500000  0.500000  0.000000  1
  Co  Co1  1  0.484293  0.179687  0.336991  1
  Co  Co2  1  0.515707  0.820313  0.663009  1
  Co  Co3  1  0.971408  0.349588  0.676834  1
  Co  Co4  1  0.028592  0.650412  0.323166  1
  Co  Co5  1  0.000000  0.000000  0.000000  1
  O  O6  1  0.701194  0.531377  0.769983  1
  O  O7  1  0.298806  0.468623  0.230017  1
  F  F8  1  0.806309  0.369510  0.436055  1
  F  F9  1  0.805886  0.036064  0.763992  1
  F  F10  1  0.804361  0.704088  0.105059  1
  F  F11  1  0.695364  0.200917  0.103538  1
  F  F12  1  0.705709  0.864192  0.427124  1
  F  F13  1  0.294291  0.135808  0.572876  1
  F  F14  1  0.304636  0.799083  0.896462  1
  F  F15  1  0.194114  0.963936  0.236008  1
  F  F16  1  0.195639  0.295912  0.894941  1
  F  F17  1  0.193691  0.630490  0.563945  1
