# generated using pymatgen
data_DyMgSn
_symmetry_space_group_name_H-M   'P 1'
_cell_length_a   8.54557179
_cell_length_b   8.54557179
_cell_length_c   8.54557179
_cell_angle_alpha   150.15822102
_cell_angle_beta   150.15822102
_cell_angle_gamma   42.70920133
_symmetry_Int_Tables_number   1
_chemical_formula_structural   DyMgSn
_chemical_formula_sum   'Dy2 Mg2 Sn2'
_cell_volume   154.13384830
_cell_formula_units_Z   2
loop_
 _symmetry_equiv_pos_site_id
 _symmetry_equiv_pos_as_xyz
  1  'x, y, z'
loop_
 _atom_site_type_symbol
 _atom_site_label
 _atom_site_symmetry_multiplicity
 _atom_site_fract_x
 _atom_site_fract_y
 _atom_site_fract_z
 _atom_site_occupancy
  Dy  Dy0  1  0.666975  0.666975  0.000000  1
  Dy  Dy1  1  0.333025  0.333025  0.000000  1
  Mg  Mg2  1  0.000000  0.500000  0.500000  1
  Mg  Mg3  1  0.500000  1.000000  0.500000  1
  Sn  Sn4  1  0.135729  0.135729  0.000000  1
  Sn  Sn5  1  0.864271  0.864271  0.000000  1
