# generated using pymatgen
data_Li4Mn3Cu3(WO8)2
_symmetry_space_group_name_H-M   'P 1'
_cell_length_a   5.96484621
_cell_length_b   5.96484621
_cell_length_c   9.90704651
_cell_angle_alpha   86.01170462
_cell_angle_beta   93.98829538
_cell_angle_gamma   120.67437264
_symmetry_Int_Tables_number   1
_chemical_formula_structural   Li4Mn3Cu3(WO8)2
_chemical_formula_sum   'Li4 Mn3 Cu3 W2 O16'
_cell_volume   302.19421738
_cell_formula_units_Z   1
loop_
 _symmetry_equiv_pos_site_id
 _symmetry_equiv_pos_as_xyz
  1  'x, y, z'
loop_
 _atom_site_type_symbol
 _atom_site_label
 _atom_site_symmetry_multiplicity
 _atom_site_fract_x
 _atom_site_fract_y
 _atom_site_fract_z
 _atom_site_occupancy
  Li  Li0  1  0.329374  0.670626  0.914129  1
  Li  Li1  1  0.002944  0.997056  0.986561  1
  Li  Li2  1  0.001021  0.998979  0.479715  1
  Li  Li3  1  0.654302  0.345698  0.407809  1
  Mn  Mn4  1  0.171779  0.828221  0.216590  1
  Mn  Mn5  1  0.833230  0.662377  0.713239  1
  Mn  Mn6  1  0.337623  0.166770  0.713239  1
  Cu  Cu7  1  0.665415  0.831275  0.209761  1
  Cu  Cu8  1  0.168725  0.334585  0.209761  1
  Cu  Cu9  1  0.831733  0.168267  0.712881  1
  W  W10  1  0.329030  0.670970  0.484301  1
  W  W11  1  0.667011  0.332989  0.988060  1
  O  O12  1  0.663191  0.821858  0.579786  1
  O  O13  1  0.468831  0.531169  0.353427  1
  O  O14  1  0.326244  0.673756  0.123597  1
  O  O15  1  0.007621  0.992379  0.292545  1
  O  O16  1  0.005282  0.994718  0.796864  1
  O  O17  1  0.178142  0.336809  0.579786  1
  O  O18  1  0.452317  0.975920  0.351750  1
  O  O19  1  0.024080  0.547683  0.351750  1
  O  O20  1  0.839714  0.160286  0.078765  1
  O  O21  1  0.180364  0.819636  0.588255  1
  O  O22  1  0.959223  0.496672  0.854366  1
  O  O23  1  0.503328  0.040777  0.854366  1
  O  O24  1  0.661136  0.338864  0.620352  1
  O  O25  1  0.859073  0.645938  0.090730  1
  O  O26  1  0.511744  0.488256  0.865794  1
  O  O27  1  0.354062  0.140927  0.090730  1
