# generated using pymatgen
data_V(SO4)2
_symmetry_space_group_name_H-M   'P 1'
_cell_length_a   8.95037982
_cell_length_b   9.08230116
_cell_length_c   13.32034338
_cell_angle_alpha   90.00000000
_cell_angle_beta   90.00000000
_cell_angle_gamma   90.00000000
_symmetry_Int_Tables_number   1
_chemical_formula_structural   V(SO4)2
_chemical_formula_sum   'V8 S16 O64'
_cell_volume   1082.81131306
_cell_formula_units_Z   8
loop_
 _symmetry_equiv_pos_site_id
 _symmetry_equiv_pos_as_xyz
  1  'x, y, z'
loop_
 _atom_site_type_symbol
 _atom_site_label
 _atom_site_symmetry_multiplicity
 _atom_site_fract_x
 _atom_site_fract_y
 _atom_site_fract_z
 _atom_site_occupancy
  V  V0  1  0.894017  0.858419  0.126683  1
  V  V1  1  0.605983  0.858419  0.626683  1
  V  V2  1  0.394017  0.641581  0.126683  1
  V  V3  1  0.105983  0.641581  0.626683  1
  V  V4  1  0.894017  0.358419  0.373317  1
  V  V5  1  0.605983  0.358419  0.873317  1
  V  V6  1  0.394017  0.141581  0.373317  1
  V  V7  1  0.105983  0.141581  0.873317  1
  S  S8  1  0.935362  0.927308  0.720288  1
  S  S9  1  0.564638  0.927308  0.220288  1
  S  S10  1  0.311782  0.840079  0.486741  1
  S  S11  1  0.188218  0.840079  0.986741  1
  S  S12  1  0.811782  0.659921  0.486741  1
  S  S13  1  0.688218  0.659921  0.986741  1
  S  S14  1  0.064638  0.572692  0.220288  1
  S  S15  1  0.435362  0.572692  0.720288  1
  S  S16  1  0.564638  0.427309  0.279712  1
  S  S17  1  0.935362  0.427309  0.779712  1
  S  S18  1  0.311782  0.340079  0.013259  1
  S  S19  1  0.188218  0.340079  0.513259  1
  S  S20  1  0.811782  0.159921  0.013259  1
  S  S21  1  0.688218  0.159921  0.513259  1
  S  S22  1  0.435362  0.072692  0.779712  1
  S  S23  1  0.064638  0.072692  0.279712  1
  O  O24  1  0.302613  0.004945  0.472499  1
  O  O25  1  0.197387  0.004945  0.972499  1
  O  O26  1  0.008509  0.980755  0.357650  1
  O  O27  1  0.491491  0.980755  0.857650  1
  O  O28  1  0.526696  0.977475  0.325429  1
  O  O29  1  0.973304  0.977475  0.825429  1
  O  O30  1  0.765039  0.914358  0.719733  1
  O  O31  1  0.734961  0.914358  0.219733  1
  O  O32  1  0.275912  0.810022  0.082622  1
  O  O33  1  0.224088  0.810022  0.582622  1
  O  O34  1  0.028449  0.805754  0.016921  1
  O  O35  1  0.471551  0.805754  0.516921  1
  O  O36  1  0.992970  0.769582  0.716337  1
  O  O37  1  0.507030  0.769582  0.216337  1
  O  O38  1  0.265540  0.757437  0.401813  1
  O  O39  1  0.234460  0.757437  0.901813  1
  O  O40  1  0.765540  0.742563  0.401813  1
  O  O41  1  0.734460  0.742563  0.901813  1
  O  O42  1  0.007030  0.730418  0.216337  1
  O  O43  1  0.492970  0.730418  0.716337  1
  O  O44  1  0.971551  0.694246  0.516921  1
  O  O45  1  0.528449  0.694246  0.016921  1
  O  O46  1  0.775912  0.689978  0.082622  1
  O  O47  1  0.724088  0.689978  0.582622  1
  O  O48  1  0.234961  0.585642  0.219733  1
  O  O49  1  0.265039  0.585642  0.719733  1
  O  O50  1  0.473304  0.522525  0.825429  1
  O  O51  1  0.026696  0.522525  0.325429  1
  O  O52  1  0.508509  0.519245  0.357650  1
  O  O53  1  0.991491  0.519245  0.857650  1
  O  O54  1  0.802613  0.495055  0.472499  1
  O  O55  1  0.697387  0.495055  0.972499  1
  O  O56  1  0.302613  0.504945  0.027501  1
  O  O57  1  0.197387  0.504945  0.527501  1
  O  O58  1  0.491491  0.480755  0.642350  1
  O  O59  1  0.008509  0.480755  0.142350  1
  O  O60  1  0.526696  0.477475  0.174571  1
  O  O61  1  0.973304  0.477475  0.674571  1
  O  O62  1  0.734961  0.414358  0.280267  1
  O  O63  1  0.765039  0.414358  0.780267  1
  O  O64  1  0.275912  0.310022  0.417378  1
  O  O65  1  0.224088  0.310022  0.917378  1
  O  O66  1  0.471551  0.305754  0.983079  1
  O  O67  1  0.028449  0.305754  0.483079  1
  O  O68  1  0.507030  0.269582  0.283663  1
  O  O69  1  0.992970  0.269582  0.783663  1
  O  O70  1  0.265540  0.257437  0.098187  1
  O  O71  1  0.234460  0.257437  0.598187  1
  O  O72  1  0.765540  0.242563  0.098187  1
  O  O73  1  0.734460  0.242563  0.598187  1
  O  O74  1  0.492970  0.230418  0.783663  1
  O  O75  1  0.007030  0.230418  0.283663  1
  O  O76  1  0.528449  0.194246  0.483079  1
  O  O77  1  0.971551  0.194246  0.983079  1
  O  O78  1  0.775912  0.189978  0.417378  1
  O  O79  1  0.724088  0.189978  0.917378  1
  O  O80  1  0.265039  0.085642  0.780267  1
  O  O81  1  0.234961  0.085642  0.280267  1
  O  O82  1  0.473304  0.022525  0.674571  1
  O  O83  1  0.026696  0.022525  0.174571  1
  O  O84  1  0.991491  0.019245  0.642350  1
  O  O85  1  0.508509  0.019245  0.142350  1
  O  O86  1  0.802613  0.995055  0.027501  1
  O  O87  1  0.697387  0.995055  0.527501  1
