# generated using pymatgen
data_V2O3F
_symmetry_space_group_name_H-M   'P 1'
_cell_length_a   5.55627809
_cell_length_b   5.55627809
_cell_length_c   8.96415095
_cell_angle_alpha   87.76605721
_cell_angle_beta   92.23394279
_cell_angle_gamma   107.91794364
_symmetry_Int_Tables_number   1
_chemical_formula_structural   V2O3F
_chemical_formula_sum   'V8 O12 F4'
_cell_volume   263.01457847
_cell_formula_units_Z   4
loop_
 _symmetry_equiv_pos_site_id
 _symmetry_equiv_pos_as_xyz
  1  'x, y, z'
loop_
 _atom_site_type_symbol
 _atom_site_label
 _atom_site_symmetry_multiplicity
 _atom_site_fract_x
 _atom_site_fract_y
 _atom_site_fract_z
 _atom_site_occupancy
  V  V0  1  0.858221  0.141779  0.354040  1
  V  V1  1  0.141779  0.858221  0.645960  1
  V  V2  1  0.500000  0.500000  0.500000  1
  V  V3  1  0.758472  0.241528  0.737367  1
  V  V4  1  0.000000  0.000000  0.000000  1
  V  V5  1  0.397155  0.602845  0.864356  1
  V  V6  1  0.602845  0.397155  0.135644  1
  V  V7  1  0.241528  0.758472  0.262633  1
  O  O8  1  0.061906  0.550574  0.758778  1
  O  O9  1  0.471120  0.528880  0.280032  1
  O  O10  1  0.980719  0.019281  0.771208  1
  O  O11  1  0.727783  0.272217  0.514555  1
  O  O12  1  0.272217  0.727783  0.485445  1
  O  O13  1  0.019281  0.980719  0.228792  1
  O  O14  1  0.528880  0.471120  0.719968  1
  O  O15  1  0.449426  0.938094  0.758778  1
  O  O16  1  0.938094  0.449426  0.241222  1
  O  O17  1  0.693372  0.693372  0.000000  1
  O  O18  1  0.550574  0.061906  0.241222  1
  O  O19  1  0.306628  0.306628  0.000000  1
  F  F20  1  0.190492  0.190492  0.500000  1
  F  F21  1  0.809508  0.809508  0.500000  1
  F  F22  1  0.229278  0.770722  0.027864  1
  F  F23  1  0.770722  0.229278  0.972136  1
