# generated using pymatgen
data_V6O5F19
_symmetry_space_group_name_H-M   'P 1'
_cell_length_a   5.37556729
_cell_length_b   5.53360487
_cell_length_c   14.85943629
_cell_angle_alpha   100.51402664
_cell_angle_beta   89.61164768
_cell_angle_gamma   92.54004598
_symmetry_Int_Tables_number   1
_chemical_formula_structural   V6O5F19
_chemical_formula_sum   'V6 O5 F19'
_cell_volume   434.16408190
_cell_formula_units_Z   1
loop_
 _symmetry_equiv_pos_site_id
 _symmetry_equiv_pos_as_xyz
  1  'x, y, z'
loop_
 _atom_site_type_symbol
 _atom_site_label
 _atom_site_symmetry_multiplicity
 _atom_site_fract_x
 _atom_site_fract_y
 _atom_site_fract_z
 _atom_site_occupancy
  V  V0  1  0.945949  0.987075  0.005415  1
  V  V1  1  0.544148  0.800250  0.670768  1
  V  V2  1  0.964617  0.721913  0.337516  1
  V  V3  1  0.438306  0.525644  0.993777  1
  V  V4  1  0.034389  0.288116  0.663067  1
  V  V5  1  0.489217  0.180338  0.331923  1
  O  O6  1  0.794400  0.964105  0.357407  1
  O  O7  1  0.713955  0.791855  0.020438  1
  O  O8  1  0.773397  0.638213  0.688486  1
  O  O9  1  0.214493  0.704298  0.976395  1
  O  O10  1  0.200960  0.050054  0.645246  1
  F  F11  1  0.280269  0.866853  0.309825  1
  F  F12  1  0.945581  0.958548  0.884916  1
  F  F13  1  0.565988  0.810745  0.552322  1
  F  F14  1  0.929597  0.607292  0.219593  1
  F  F15  1  0.406974  0.880977  0.780363  1
  F  F16  1  0.087642  0.692763  0.444762  1
  F  F17  1  0.443553  0.546356  0.113959  1
  F  F18  1  0.702530  0.483572  0.357156  1
  F  F19  1  0.798949  0.276993  0.026125  1
  F  F20  1  0.289434  0.534513  0.639659  1
  F  F21  1  0.216670  0.343466  0.307283  1
  F  F22  1  0.596088  0.451406  0.887512  1
  F  F23  1  0.906346  0.293712  0.553607  1
  F  F24  1  0.599364  0.111103  0.217994  1
  F  F25  1  0.073652  0.407137  0.781441  1
  F  F26  1  0.429260  0.201133  0.450342  1
  F  F27  1  0.101984  0.040315  0.112308  1
  F  F28  1  0.721572  0.124934  0.693720  1
  F  F29  1  0.290717  0.216320  0.976671  1
