# generated using pymatgen
data_In15SnO24
_symmetry_space_group_name_H-M   'P 1'
_cell_length_a   8.93272769
_cell_length_b   8.93272769
_cell_length_c   8.93272769
_cell_angle_alpha   109.39253701
_cell_angle_beta   109.39253701
_cell_angle_gamma   109.39253701
_symmetry_Int_Tables_number   1
_chemical_formula_structural   In15SnO24
_chemical_formula_sum   'In15 Sn1 O24'
_cell_volume   550.28687390
_cell_formula_units_Z   1
loop_
 _symmetry_equiv_pos_site_id
 _symmetry_equiv_pos_as_xyz
  1  'x, y, z'
loop_
 _atom_site_type_symbol
 _atom_site_label
 _atom_site_symmetry_multiplicity
 _atom_site_fract_x
 _atom_site_fract_y
 _atom_site_fract_z
 _atom_site_occupancy
  In  In0  1  0.716386  0.465164  0.249608  1
  In  In1  1  0.249330  0.215000  0.966482  1
  In  In2  1  0.750392  0.283614  0.534836  1
  In  In3  1  0.534836  0.750392  0.283614  1
  In  In4  1  0.033518  0.750670  0.785000  1
  In  In5  1  0.500000  0.000000  0.000000  1
  In  In6  1  0.785000  0.033518  0.750670  1
  In  In7  1  0.000000  0.500000  0.000000  1
  In  In8  1  0.215000  0.966482  0.249330  1
  In  In9  1  0.000000  0.000000  0.500000  1
  In  In10  1  0.966482  0.249330  0.215000  1
  In  In11  1  0.465164  0.249608  0.716386  1
  In  In12  1  0.750670  0.785000  0.033518  1
  In  In13  1  0.249608  0.716386  0.465164  1
  In  In14  1  0.283614  0.534836  0.750392  1
  Sn  Sn15  1  0.500000  0.500000  0.500000  1
  O  O16  1  0.763135  0.545860  0.539514  1
  O  O17  1  0.993132  0.955491  0.727559  1
  O  O18  1  0.736270  0.229848  0.274321  1
  O  O19  1  0.545860  0.539514  0.763135  1
  O  O20  1  0.762091  0.034501  0.492939  1
  O  O21  1  0.955491  0.727559  0.993132  1
  O  O22  1  0.725679  0.263730  0.770152  1
  O  O23  1  0.507061  0.237909  0.965499  1
  O  O24  1  0.272441  0.006868  0.044509  1
  O  O25  1  0.539514  0.763135  0.545860  1
  O  O26  1  0.770152  0.725679  0.263730  1
  O  O27  1  0.034501  0.492939  0.762091  1
  O  O28  1  0.965499  0.507061  0.237909  1
  O  O29  1  0.727559  0.993132  0.955491  1
  O  O30  1  0.229848  0.274321  0.736270  1
  O  O31  1  0.460486  0.236865  0.454140  1
  O  O32  1  0.274321  0.736270  0.229848  1
  O  O33  1  0.492939  0.762091  0.034501  1
  O  O34  1  0.237909  0.965499  0.507061  1
  O  O35  1  0.044509  0.272441  0.006868  1
  O  O36  1  0.263730  0.770152  0.725679  1
  O  O37  1  0.454140  0.460486  0.236865  1
  O  O38  1  0.006868  0.044509  0.272441  1
  O  O39  1  0.236865  0.454140  0.460486  1
