# generated using pymatgen
data_Li2Cr2(PO4)3
_symmetry_space_group_name_H-M   'P 1'
_cell_length_a   8.31952035
_cell_length_b   8.36566212
_cell_length_c   8.90464358
_cell_angle_alpha   62.19181075
_cell_angle_beta   62.38856662
_cell_angle_gamma   60.34550584
_symmetry_Int_Tables_number   1
_chemical_formula_structural   Li2Cr2(PO4)3
_chemical_formula_sum   'Li4 Cr4 P6 O24'
_cell_volume   454.03317120
_cell_formula_units_Z   2
loop_
 _symmetry_equiv_pos_site_id
 _symmetry_equiv_pos_as_xyz
  1  'x, y, z'
loop_
 _atom_site_type_symbol
 _atom_site_label
 _atom_site_symmetry_multiplicity
 _atom_site_fract_x
 _atom_site_fract_y
 _atom_site_fract_z
 _atom_site_occupancy
  Li  Li0  1  0.330908  0.076339  0.856131  1
  Li  Li1  1  0.080826  0.737057  0.865217  1
  Li  Li2  1  0.919174  0.262943  0.134783  1
  Li  Li3  1  0.669092  0.923661  0.143869  1
  Cr  Cr4  1  0.353592  0.351005  0.949907  1
  Cr  Cr5  1  0.143691  0.147662  0.568625  1
  Cr  Cr6  1  0.856309  0.852338  0.431375  1
  Cr  Cr7  1  0.646408  0.648995  0.050093  1
  P  P8  1  0.752255  0.036164  0.750594  1
  P  P9  1  0.035446  0.463477  0.750435  1
  P  P10  1  0.466870  0.747245  0.748045  1
  P  P11  1  0.533130  0.252755  0.251955  1
  P  P12  1  0.964554  0.536523  0.249565  1
  P  P13  1  0.247745  0.963836  0.249406  1
  O  O14  1  0.537835  0.170602  0.799797  1
  O  O15  1  0.894318  0.118668  0.726048  1
  O  O16  1  0.844217  0.467039  0.909133  1
  O  O17  1  0.132258  0.255887  0.735144  1
  O  O18  1  0.801399  0.995934  0.580350  1
  O  O19  1  0.171817  0.495138  0.801415  1
  O  O20  1  0.490238  0.536218  0.804636  1
  O  O21  1  0.486173  0.794682  0.889495  1
  O  O22  1  0.786880  0.842241  0.911938  1
  O  O23  1  0.383679  0.197515  0.430101  1
  O  O24  1  0.741703  0.116272  0.263971  1
  O  O25  1  0.004925  0.614355  0.576271  1
  O  O26  1  0.995075  0.385645  0.423729  1
  O  O27  1  0.258297  0.883728  0.736029  1
  O  O28  1  0.616321  0.802485  0.569899  1
  O  O29  1  0.213120  0.157759  0.088062  1
  O  O30  1  0.513827  0.205318  0.110505  1
  O  O31  1  0.509762  0.463782  0.195364  1
  O  O32  1  0.828183  0.504862  0.198585  1
  O  O33  1  0.198601  0.004066  0.419650  1
  O  O34  1  0.867742  0.744113  0.264856  1
  O  O35  1  0.155783  0.532961  0.090867  1
  O  O36  1  0.105682  0.881332  0.273952  1
  O  O37  1  0.462165  0.829398  0.200203  1
