# generated using pymatgen
data_Li3Cr2(PO4)3
_symmetry_space_group_name_H-M   'P 1'
_cell_length_a   8.36751804
_cell_length_b   8.37831644
_cell_length_c   8.98036301
_cell_angle_alpha   117.67066828
_cell_angle_beta   89.98888632
_cell_angle_gamma   119.89519756
_symmetry_Int_Tables_number   1
_chemical_formula_structural   Li3Cr2(PO4)3
_chemical_formula_sum   'Li6 Cr4 P6 O24'
_cell_volume   460.93097535
_cell_formula_units_Z   2
loop_
 _symmetry_equiv_pos_site_id
 _symmetry_equiv_pos_as_xyz
  1  'x, y, z'
loop_
 _atom_site_type_symbol
 _atom_site_label
 _atom_site_symmetry_multiplicity
 _atom_site_fract_x
 _atom_site_fract_y
 _atom_site_fract_z
 _atom_site_occupancy
  Li  Li0  1  0.082138  0.267739  0.151631  1
  Li  Li1  1  0.328490  0.920198  0.143464  1
  Li  Li2  1  0.745610  0.558104  0.373428  1
  Li  Li3  1  0.269185  0.326986  0.862174  1
  Li  Li4  1  0.671870  0.069896  0.864929  1
  Li  Li5  1  0.921210  0.733823  0.865585  1
  Cr  Cr6  1  0.352250  0.655104  0.044824  1
  Cr  Cr7  1  0.146735  0.852411  0.436091  1
  Cr  Cr8  1  0.856451  0.143650  0.567959  1
  Cr  Cr9  1  0.654481  0.347725  0.958715  1
  P  P10  1  0.038224  0.540445  0.248236  1
  P  P11  1  0.460535  0.251142  0.252986  1
  P  P12  1  0.749520  0.957869  0.252608  1
  P  P13  1  0.252643  0.039831  0.750248  1
  P  P14  1  0.536666  0.748297  0.749047  1
  P  P15  1  0.961332  0.455228  0.756361  1
  O  O16  1  0.173478  0.507921  0.199148  1
  O  O17  1  0.132518  0.747929  0.263134  1
  O  O18  1  0.463605  0.209235  0.100222  1
  O  O19  1  0.254057  0.119965  0.269473  1
  O  O20  1  0.999707  0.390622  0.419757  1
  O  O21  1  0.491203  0.466750  0.201322  1
  O  O22  1  0.532036  0.831252  0.197030  1
  O  O23  1  0.793876  0.151643  0.094547  1
  O  O24  1  0.845767  0.536013  0.091472  1
  O  O25  1  0.197583  0.000195  0.581925  1
  O  O26  1  0.124763  0.136735  0.733035  1
  O  O27  1  0.620248  0.213469  0.424547  1
  O  O28  1  0.386522  0.797480  0.572677  1
  O  O29  1  0.872444  0.850363  0.281337  1
  O  O30  1  0.799897  0.001627  0.417533  1
  O  O31  1  0.159452  0.461246  0.906991  1
  O  O32  1  0.210340  0.844184  0.907768  1
  O  O33  1  0.469021  0.168493  0.806467  1
  O  O34  1  0.507033  0.530901  0.809561  1
  O  O35  1  0.987231  0.604148  0.578908  1
  O  O36  1  0.744708  0.876170  0.733435  1
  O  O37  1  0.524058  0.795548  0.892074  1
  O  O38  1  0.867296  0.248328  0.741465  1
  O  O39  1  0.832443  0.492204  0.807253  1
