# generated using pymatgen
data_Ca3N2
_symmetry_space_group_name_H-M   'P 1'
_cell_length_a   9.93809294
_cell_length_b   9.93809294
_cell_length_c   9.93809294
_cell_angle_alpha   109.47122063
_cell_angle_beta   109.47122063
_cell_angle_gamma   109.47122063
_symmetry_Int_Tables_number   1
_chemical_formula_structural   Ca3N2
_chemical_formula_sum   'Ca24 N16'
_cell_volume   755.59186094
_cell_formula_units_Z   8
loop_
 _symmetry_equiv_pos_site_id
 _symmetry_equiv_pos_as_xyz
  1  'x, y, z'
loop_
 _atom_site_type_symbol
 _atom_site_label
 _atom_site_symmetry_multiplicity
 _atom_site_fract_x
 _atom_site_fract_y
 _atom_site_fract_z
 _atom_site_occupancy
  Ca  Ca0  1  0.043853  0.271483  0.006727  1
  Ca  Ca1  1  0.272370  0.735244  0.228517  1
  Ca  Ca2  1  0.764756  0.037125  0.493273  1
  Ca  Ca3  1  0.456147  0.462875  0.227630  1
  Ca  Ca4  1  0.227630  0.456147  0.462875  1
  Ca  Ca5  1  0.271483  0.006727  0.043853  1
  Ca  Ca6  1  0.228517  0.272370  0.735244  1
  Ca  Ca7  1  0.037125  0.493273  0.764756  1
  Ca  Ca8  1  0.493273  0.764756  0.037125  1
  Ca  Ca9  1  0.735244  0.228517  0.272370  1
  Ca  Ca10  1  0.006727  0.043853  0.271483  1
  Ca  Ca11  1  0.462875  0.227630  0.456147  1
  Ca  Ca12  1  0.962875  0.506727  0.235244  1
  Ca  Ca13  1  0.771483  0.727630  0.264756  1
  Ca  Ca14  1  0.728517  0.993273  0.956147  1
  Ca  Ca15  1  0.772370  0.543853  0.537125  1
  Ca  Ca16  1  0.543853  0.537125  0.772370  1
  Ca  Ca17  1  0.235244  0.962875  0.506727  1
  Ca  Ca18  1  0.727630  0.264756  0.771483  1
  Ca  Ca19  1  0.956147  0.728517  0.993273  1
  Ca  Ca20  1  0.506727  0.235244  0.962875  1
  Ca  Ca21  1  0.264756  0.771483  0.727630  1
  Ca  Ca22  1  0.993273  0.956147  0.728517  1
  Ca  Ca23  1  0.537125  0.772370  0.543853  1
  N  N24  1  0.250000  0.710402  0.460402  1
  N  N25  1  0.039598  0.750000  0.789598  1
  N  N26  1  0.789598  0.039598  0.750000  1
  N  N27  1  0.460402  0.250000  0.710402  1
  N  N28  1  0.710402  0.460402  0.250000  1
  N  N29  1  0.750000  0.789598  0.039598  1
  N  N30  1  0.750000  0.289598  0.539598  1
  N  N31  1  0.960402  0.250000  0.210402  1
  N  N32  1  0.210402  0.960402  0.250000  1
  N  N33  1  0.539598  0.750000  0.289598  1
  N  N34  1  0.289598  0.539598  0.750000  1
  N  N35  1  0.250000  0.210402  0.960402  1
  N  N36  1  0.000000  0.500000  0.000000  1
  N  N37  1  0.500000  1.000000  0.000000  1
  N  N38  1  0.000000  0.000000  0.500000  1
  N  N39  1  0.500000  0.500000  0.500000  1
