# generated using pymatgen
data_Ta2Se
_symmetry_space_group_name_H-M   'P 1'
_cell_length_a   3.40431774
_cell_length_b   3.40431774
_cell_length_c   10.33798549
_cell_angle_alpha   90.00000000
_cell_angle_beta   90.00000000
_cell_angle_gamma   90.00000000
_symmetry_Int_Tables_number   1
_chemical_formula_structural   Ta2Se
_chemical_formula_sum   'Ta4 Se2'
_cell_volume   119.81083478
_cell_formula_units_Z   2
loop_
 _symmetry_equiv_pos_site_id
 _symmetry_equiv_pos_as_xyz
  1  'x, y, z'
loop_
 _atom_site_type_symbol
 _atom_site_label
 _atom_site_symmetry_multiplicity
 _atom_site_fract_x
 _atom_site_fract_y
 _atom_site_fract_z
 _atom_site_occupancy
  Ta  Ta0  1  0.500000  0.000000  0.769558  1
  Ta  Ta1  1  0.000000  0.500000  0.230442  1
  Ta  Ta2  1  0.000000  0.500000  0.926864  1
  Ta  Ta3  1  0.500000  0.000000  0.073136  1
  Se  Se4  1  0.000000  0.500000  0.650728  1
  Se  Se5  1  0.500000  0.000000  0.349272  1
