# generated using pymatgen
data_Li3Mn4(BO3)4
_symmetry_space_group_name_H-M   'P 1'
_cell_length_a   6.16147384
_cell_length_b   9.11857445
_cell_length_c   9.69452046
_cell_angle_alpha   79.64897595
_cell_angle_beta   80.20318479
_cell_angle_gamma   72.17157687
_symmetry_Int_Tables_number   1
_chemical_formula_structural   Li3Mn4(BO3)4
_chemical_formula_sum   'Li6 Mn8 B8 O24'
_cell_volume   506.21006793
_cell_formula_units_Z   2
loop_
 _symmetry_equiv_pos_site_id
 _symmetry_equiv_pos_as_xyz
  1  'x, y, z'
loop_
 _atom_site_type_symbol
 _atom_site_label
 _atom_site_symmetry_multiplicity
 _atom_site_fract_x
 _atom_site_fract_y
 _atom_site_fract_z
 _atom_site_occupancy
  Li  Li0  1  0.025716  0.870363  0.781875  1
  Li  Li1  1  0.298699  0.352430  0.537846  1
  Li  Li2  1  0.974284  0.129637  0.218125  1
  Li  Li3  1  0.701301  0.647570  0.462154  1
  Li  Li4  1  0.215950  0.631492  0.964609  1
  Li  Li5  1  0.784050  0.368508  0.035391  1
  Mn  Mn6  1  0.531130  0.435121  0.727392  1
  Mn  Mn7  1  0.224799  0.043289  0.524818  1
  Mn  Mn8  1  0.775201  0.956711  0.475182  1
  Mn  Mn9  1  0.284480  0.954803  0.963577  1
  Mn  Mn10  1  0.965723  0.542340  0.774926  1
  Mn  Mn11  1  0.468870  0.564879  0.272608  1
  Mn  Mn12  1  0.034277  0.457660  0.225074  1
  Mn  Mn13  1  0.715520  0.045197  0.036423  1
  B  B14  1  0.507075  0.776665  0.716537  1
  B  B15  1  0.983365  0.210981  0.777147  1
  B  B16  1  0.492925  0.223335  0.283463  1
  B  B17  1  0.016635  0.789019  0.222853  1
  B  B18  1  0.222344  0.711319  0.529350  1
  B  B19  1  0.777656  0.288681  0.470650  1
  B  B20  1  0.266207  0.285340  0.983772  1
  B  B21  1  0.733793  0.714660  0.016228  1
  O  O22  1  0.354686  0.777950  0.839037  1
  O  O23  1  0.509472  0.913262  0.625889  1
  O  O24  1  0.619575  0.278831  0.585183  1
  O  O25  1  0.072388  0.852260  0.578351  1
  O  O26  1  0.586666  0.855535  0.053876  1
  O  O27  1  0.985674  0.066849  0.861415  1
  O  O28  1  0.490528  0.086738  0.374111  1
  O  O29  1  0.113960  0.222000  0.649833  1
  O  O30  1  0.886040  0.778000  0.350167  1
  O  O31  1  0.841480  0.344608  0.833875  1
  O  O32  1  0.345432  0.362513  0.324049  1
  O  O33  1  0.215212  0.568306  0.609007  1
  O  O34  1  0.014326  0.933151  0.138585  1
  O  O35  1  0.927612  0.147740  0.421649  1
  O  O36  1  0.413334  0.144465  0.946124  1
  O  O37  1  0.380425  0.721169  0.414817  1
  O  O38  1  0.100519  0.282388  0.098497  1
  O  O39  1  0.784788  0.431694  0.390993  1
  O  O40  1  0.280847  0.425448  0.903165  1
  O  O41  1  0.654568  0.637487  0.675951  1
  O  O42  1  0.158520  0.655392  0.166125  1
  O  O43  1  0.645314  0.222050  0.160963  1
  O  O44  1  0.719153  0.574552  0.096835  1
  O  O45  1  0.899481  0.717612  0.901503  1
