# generated using pymatgen
data_Cu3As
_symmetry_space_group_name_H-M   'P 1'
_cell_length_a   7.19066158
_cell_length_b   7.19066158
_cell_length_c   7.40477177
_cell_angle_alpha   90.00000000
_cell_angle_beta   90.00000000
_cell_angle_gamma   120.00000000
_symmetry_Int_Tables_number   1
_chemical_formula_structural   Cu3As
_chemical_formula_sum   'Cu18 As6'
_cell_volume   331.57364870
_cell_formula_units_Z   6
loop_
 _symmetry_equiv_pos_site_id
 _symmetry_equiv_pos_as_xyz
  1  'x, y, z'
loop_
 _atom_site_type_symbol
 _atom_site_label
 _atom_site_symmetry_multiplicity
 _atom_site_fract_x
 _atom_site_fract_y
 _atom_site_fract_z
 _atom_site_occupancy
  Cu  Cu0  1  0.000000  0.000000  0.750000  1
  Cu  Cu1  1  0.000000  0.000000  0.250000  1
  Cu  Cu2  1  0.333333  0.666667  0.653554  1
  Cu  Cu3  1  0.666667  0.333333  0.846446  1
  Cu  Cu4  1  0.666667  0.333333  0.346446  1
  Cu  Cu5  1  0.333333  0.666667  0.153554  1
  Cu  Cu6  1  0.370054  0.054027  0.080920  1
  Cu  Cu7  1  0.945973  0.316027  0.080920  1
  Cu  Cu8  1  0.683973  0.629946  0.080920  1
  Cu  Cu9  1  0.316027  0.945973  0.419080  1
  Cu  Cu10  1  0.629946  0.683973  0.419080  1
  Cu  Cu11  1  0.054027  0.370054  0.419080  1
  Cu  Cu12  1  0.629946  0.945973  0.919080  1
  Cu  Cu13  1  0.054027  0.683973  0.919080  1
  Cu  Cu14  1  0.316027  0.370054  0.919080  1
  Cu  Cu15  1  0.683973  0.054027  0.580920  1
  Cu  Cu16  1  0.370054  0.316027  0.580920  1
  Cu  Cu17  1  0.945973  0.629946  0.580920  1
  As  As18  1  0.663270  0.663270  0.750000  1
  As  As19  1  0.000000  0.336730  0.750000  1
  As  As20  1  0.336730  0.000000  0.750000  1
  As  As21  1  0.336730  0.336730  0.250000  1
  As  As22  1  0.000000  0.663270  0.250000  1
  As  As23  1  0.663270  0.000000  0.250000  1
