# generated using pymatgen
data_LiNbVO4
_symmetry_space_group_name_H-M   'P 1'
_cell_length_a   6.16180517
_cell_length_b   6.16180517
_cell_length_c   6.16180517
_cell_angle_alpha   120.55262426
_cell_angle_beta   119.85704876
_cell_angle_gamma   89.64663949
_symmetry_Int_Tables_number   1
_chemical_formula_structural   LiNbVO4
_chemical_formula_sum   'Li2 Nb2 V2 O8'
_cell_volume   164.90471645
_cell_formula_units_Z   2
loop_
 _symmetry_equiv_pos_site_id
 _symmetry_equiv_pos_as_xyz
  1  'x, y, z'
loop_
 _atom_site_type_symbol
 _atom_site_label
 _atom_site_symmetry_multiplicity
 _atom_site_fract_x
 _atom_site_fract_y
 _atom_site_fract_z
 _atom_site_occupancy
  Li  Li0  1  0.872196  0.622196  0.750000  1
  Li  Li1  1  0.127804  0.377804  0.250000  1
  Nb  Nb2  1  0.500000  0.000000  0.500000  1
  Nb  Nb3  1  0.500000  0.500000  0.000000  1
  V  V4  1  0.000000  0.000000  0.500000  1
  V  V5  1  0.500000  0.000000  0.000000  1
  O  O6  1  0.730138  0.213651  0.483513  1
  O  O7  1  0.740669  0.758171  0.482498  1
  O  O8  1  0.275673  0.758171  0.017502  1
  O  O9  1  0.730138  0.746625  0.016487  1
  O  O10  1  0.269862  0.253375  0.983513  1
  O  O11  1  0.259331  0.241829  0.517502  1
  O  O12  1  0.724327  0.241829  0.982498  1
  O  O13  1  0.269862  0.786349  0.516487  1
