# generated using pymatgen
data_Er4Ga16Co3
_symmetry_space_group_name_H-M   'P 1'
_cell_length_a   6.00543941
_cell_length_b   6.00543941
_cell_length_c   11.05010755
_cell_angle_alpha   90.00000000
_cell_angle_beta   90.00000000
_cell_angle_gamma   90.00000000
_symmetry_Int_Tables_number   1
_chemical_formula_structural   Er4Ga16Co3
_chemical_formula_sum   'Er4 Ga16 Co3'
_cell_volume   398.52547153
_cell_formula_units_Z   1
loop_
 _symmetry_equiv_pos_site_id
 _symmetry_equiv_pos_as_xyz
  1  'x, y, z'
loop_
 _atom_site_type_symbol
 _atom_site_label
 _atom_site_symmetry_multiplicity
 _atom_site_fract_x
 _atom_site_fract_y
 _atom_site_fract_z
 _atom_site_occupancy
  Er  Er0  1  0.000000  0.500000  0.193284  1
  Er  Er1  1  0.000000  0.500000  0.806716  1
  Er  Er2  1  0.500000  0.000000  0.806716  1
  Er  Er3  1  0.500000  0.000000  0.193284  1
  Ga  Ga4  1  0.000000  0.000000  0.218261  1
  Ga  Ga5  1  0.000000  0.000000  0.781739  1
  Ga  Ga6  1  0.500000  0.500000  0.197453  1
  Ga  Ga7  1  0.500000  0.500000  0.802547  1
  Ga  Ga8  1  0.280617  0.280617  0.000000  1
  Ga  Ga9  1  0.719383  0.719383  0.000000  1
  Ga  Ga10  1  0.280617  0.719383  0.000000  1
  Ga  Ga11  1  0.719383  0.280617  0.000000  1
  Ga  Ga12  1  0.250370  0.250370  0.383387  1
  Ga  Ga13  1  0.749630  0.749630  0.383387  1
  Ga  Ga14  1  0.250370  0.749630  0.616613  1
  Ga  Ga15  1  0.749630  0.250370  0.616613  1
  Ga  Ga16  1  0.749630  0.749630  0.616613  1
  Ga  Ga17  1  0.250370  0.250370  0.616613  1
  Ga  Ga18  1  0.250370  0.749630  0.383387  1
  Ga  Ga19  1  0.749630  0.250370  0.383387  1
  Co  Co20  1  0.000000  0.500000  0.500000  1
  Co  Co21  1  0.500000  0.000000  0.500000  1
  Co  Co22  1  0.000000  0.000000  0.000000  1
