# generated using pymatgen
data_LiNbP2O7
_symmetry_space_group_name_H-M   'P 1'
_cell_length_a   4.98596604
_cell_length_b   8.70997329
_cell_length_c   7.15324801
_cell_angle_alpha   90.00000000
_cell_angle_beta   108.58548660
_cell_angle_gamma   90.00000000
_symmetry_Int_Tables_number   1
_chemical_formula_structural   LiNbP2O7
_chemical_formula_sum   'Li2 Nb2 P4 O14'
_cell_volume   294.44803339
_cell_formula_units_Z   2
loop_
 _symmetry_equiv_pos_site_id
 _symmetry_equiv_pos_as_xyz
  1  'x, y, z'
loop_
 _atom_site_type_symbol
 _atom_site_label
 _atom_site_symmetry_multiplicity
 _atom_site_fract_x
 _atom_site_fract_y
 _atom_site_fract_z
 _atom_site_occupancy
  Li  Li0  1  0.194336  0.201168  0.676082  1
  Li  Li1  1  0.805664  0.701168  0.323918  1
  Nb  Nb2  1  0.208219  0.556276  0.723160  1
  Nb  Nb3  1  0.791781  0.056276  0.276840  1
  P  P4  1  0.400314  0.876212  0.529932  1
  P  P5  1  0.217559  0.268097  0.082845  1
  P  P6  1  0.782441  0.768097  0.917155  1
  P  P7  1  0.599686  0.376212  0.470068  1
  O  O8  1  0.037704  0.733065  0.851241  1
  O  O9  1  0.141720  0.350818  0.885541  1
  O  O10  1  0.209106  0.019436  0.498582  1
  O  O11  1  0.231417  0.726577  0.500799  1
  O  O12  1  0.397557  0.377110  0.594201  1
  O  O13  1  0.605505  0.623892  0.921058  1
  O  O14  1  0.589623  0.890696  0.758684  1
  O  O15  1  0.410377  0.390696  0.241316  1
  O  O16  1  0.394495  0.123892  0.078942  1
  O  O17  1  0.602443  0.877110  0.405799  1
  O  O18  1  0.768583  0.226577  0.499201  1
  O  O19  1  0.790894  0.519436  0.501418  1
  O  O20  1  0.858280  0.850818  0.114459  1
  O  O21  1  0.962296  0.233065  0.148759  1
