# generated using pymatgen
data_Fe10O9F11
_symmetry_space_group_name_H-M   'P 1'
_cell_length_a   4.78838947
_cell_length_b   15.38027615
_cell_length_c   4.79200973
_cell_angle_alpha   90.00000000
_cell_angle_beta   93.42833702
_cell_angle_gamma   90.00000000
_symmetry_Int_Tables_number   1
_chemical_formula_structural   Fe10O9F11
_chemical_formula_sum   'Fe10 O9 F11'
_cell_volume   352.28436655
_cell_formula_units_Z   1
loop_
 _symmetry_equiv_pos_site_id
 _symmetry_equiv_pos_as_xyz
  1  'x, y, z'
loop_
 _atom_site_type_symbol
 _atom_site_label
 _atom_site_symmetry_multiplicity
 _atom_site_fract_x
 _atom_site_fract_y
 _atom_site_fract_z
 _atom_site_occupancy
  Fe  Fe0  1  0.006896  0.402902  0.007092  1
  Fe  Fe1  1  0.006896  0.597098  0.007092  1
  Fe  Fe2  1  0.958335  0.804898  0.977169  1
  Fe  Fe3  1  0.010367  0.000000  0.056315  1
  Fe  Fe4  1  0.958335  0.195102  0.977169  1
  Fe  Fe5  1  0.501845  0.500000  0.501865  1
  Fe  Fe6  1  0.527550  0.897722  0.467956  1
  Fe  Fe7  1  0.507394  0.689602  0.516454  1
  Fe  Fe8  1  0.527550  0.102278  0.467956  1
  Fe  Fe9  1  0.507394  0.310398  0.516454  1
  O  O10  1  0.810416  0.899641  0.192026  1
  O  O11  1  0.810416  0.100359  0.192026  1
  O  O12  1  0.704000  0.401382  0.706493  1
  O  O13  1  0.704000  0.598618  0.706493  1
  O  O14  1  0.678617  0.799411  0.680790  1
  O  O15  1  0.678617  0.200589  0.680790  1
  O  O16  1  0.305105  0.398802  0.308257  1
  O  O17  1  0.305105  0.601198  0.308257  1
  O  O18  1  0.323414  0.000000  0.323186  1
  F  F19  1  0.801013  0.500000  0.209699  1
  F  F20  1  0.800407  0.705116  0.192541  1
  F  F21  1  0.800407  0.294884  0.192541  1
  F  F22  1  0.714251  0.000000  0.703102  1
  F  F23  1  0.292201  0.799184  0.286646  1
  F  F24  1  0.292201  0.200816  0.286646  1
  F  F25  1  0.209344  0.500000  0.802015  1
  F  F26  1  0.191090  0.901244  0.810640  1
  F  F27  1  0.187870  0.707021  0.805842  1
  F  F28  1  0.187870  0.292979  0.805842  1
  F  F29  1  0.191090  0.098756  0.810640  1
