# generated using pymatgen
data_LiVSnO4
_symmetry_space_group_name_H-M   'P 1'
_cell_length_a   6.23142466
_cell_length_b   6.23142466
_cell_length_c   6.23142466
_cell_angle_alpha   121.91965556
_cell_angle_beta   119.49896654
_cell_angle_gamma   88.78882552
_symmetry_Int_Tables_number   1
_chemical_formula_structural   LiVSnO4
_chemical_formula_sum   'Li2 V2 Sn2 O8'
_cell_volume   169.12651008
_cell_formula_units_Z   2
loop_
 _symmetry_equiv_pos_site_id
 _symmetry_equiv_pos_as_xyz
  1  'x, y, z'
loop_
 _atom_site_type_symbol
 _atom_site_label
 _atom_site_symmetry_multiplicity
 _atom_site_fract_x
 _atom_site_fract_y
 _atom_site_fract_z
 _atom_site_occupancy
  Li  Li0  1  0.877259  0.627259  0.750000  1
  Li  Li1  1  0.122741  0.372741  0.250000  1
  V  V2  1  0.500000  0.000000  0.500000  1
  V  V3  1  0.500000  0.500000  0.000000  1
  Sn  Sn4  1  0.000000  0.000000  0.500000  1
  Sn  Sn5  1  0.500000  0.000000  0.000000  1
  O  O6  1  0.739606  0.222467  0.482861  1
  O  O7  1  0.733243  0.764059  0.469184  1
  O  O8  1  0.294875  0.764059  0.030816  1
  O  O9  1  0.739606  0.756745  0.017139  1
  O  O10  1  0.260394  0.243255  0.982861  1
  O  O11  1  0.266757  0.235941  0.530816  1
  O  O12  1  0.705125  0.235941  0.969184  1
  O  O13  1  0.260394  0.777533  0.517139  1
