# generated using pymatgen
data_MnV4NiO12
_symmetry_space_group_name_H-M   'P 1'
_cell_length_a   6.82946823
_cell_length_b   6.82946823
_cell_length_c   5.86392333
_cell_angle_alpha   74.55605041
_cell_angle_beta   105.44394959
_cell_angle_gamma   95.95776191
_symmetry_Int_Tables_number   1
_chemical_formula_structural   MnV4NiO12
_chemical_formula_sum   'Mn1 V4 Ni1 O12'
_cell_volume   253.94877898
_cell_formula_units_Z   1
loop_
 _symmetry_equiv_pos_site_id
 _symmetry_equiv_pos_as_xyz
  1  'x, y, z'
loop_
 _atom_site_type_symbol
 _atom_site_label
 _atom_site_symmetry_multiplicity
 _atom_site_fract_x
 _atom_site_fract_y
 _atom_site_fract_z
 _atom_site_occupancy
  Mn  Mn0  1  0.914628  0.914628  0.000000  1
  V  V1  1  0.387407  0.795163  0.011034  1
  V  V2  1  0.205993  0.609095  0.516385  1
  V  V3  1  0.795163  0.387407  0.988966  1
  V  V4  1  0.609095  0.205993  0.483615  1
  Ni  Ni5  1  0.086287  0.086287  0.500000  1
  O  O6  1  0.196737  0.965955  0.881543  1
  O  O7  1  0.617009  0.913749  0.040900  1
  O  O8  1  0.036539  0.801141  0.402253  1
  O  O9  1  0.362502  0.634156  0.807137  1
  O  O10  1  0.913749  0.617009  0.959100  1
  O  O11  1  0.360700  0.644625  0.303670  1
  O  O12  1  0.634156  0.362502  0.192863  1
  O  O13  1  0.090986  0.377328  0.541442  1
  O  O14  1  0.644625  0.360700  0.696330  1
  O  O15  1  0.965955  0.196737  0.118457  1
  O  O16  1  0.377328  0.090986  0.458558  1
  O  O17  1  0.801141  0.036539  0.597747  1
