# generated using pymatgen
data_K6Cr2O9
_symmetry_space_group_name_H-M   'P 1'
_cell_length_a   6.41423880
_cell_length_b   6.41423880
_cell_length_c   7.86959705
_cell_angle_alpha   89.11606458
_cell_angle_beta   90.88393542
_cell_angle_gamma   96.18965204
_symmetry_Int_Tables_number   1
_chemical_formula_structural   K6Cr2O9
_chemical_formula_sum   'K6 Cr2 O9'
_cell_volume   321.81795999
_cell_formula_units_Z   1
loop_
 _symmetry_equiv_pos_site_id
 _symmetry_equiv_pos_as_xyz
  1  'x, y, z'
loop_
 _atom_site_type_symbol
 _atom_site_label
 _atom_site_symmetry_multiplicity
 _atom_site_fract_x
 _atom_site_fract_y
 _atom_site_fract_z
 _atom_site_occupancy
  K  K0  1  0.500298  0.499702  0.017416  1
  K  K1  1  0.998623  0.495171  0.733792  1
  K  K2  1  0.003029  0.506604  0.220403  1
  K  K3  1  0.995873  0.004127  0.464486  1
  K  K4  1  0.493396  0.996971  0.220403  1
  K  K5  1  0.504829  0.001377  0.733792  1
  Cr  Cr6  1  0.511095  0.488905  0.490785  1
  Cr  Cr7  1  0.970161  0.029839  0.013957  1
  O  O8  1  0.797160  0.202840  0.940357  1
  O  O9  1  0.163397  0.172343  0.127136  1
  O  O10  1  0.675950  0.324050  0.397733  1
  O  O11  1  0.328498  0.328988  0.608046  1
  O  O12  1  0.671012  0.671502  0.608046  1
  O  O13  1  0.370012  0.629988  0.347569  1
  O  O14  1  0.827657  0.836603  0.127136  1
  O  O15  1  0.231894  0.768106  0.925660  1
  O  O16  1  0.092616  0.907384  0.840781  1
