# generated using pymatgen
data_Li3Co4SbO8
_symmetry_space_group_name_H-M   'P 1'
_cell_length_a   6.00492976
_cell_length_b   6.00492976
_cell_length_c   6.17841902
_cell_angle_alpha   59.90966560
_cell_angle_beta   120.09033440
_cell_angle_gamma   118.27787122
_symmetry_Int_Tables_number   1
_chemical_formula_structural   Li3Co4SbO8
_chemical_formula_sum   'Li3 Co4 Sb1 O8'
_cell_volume   159.25863340
_cell_formula_units_Z   1
loop_
 _symmetry_equiv_pos_site_id
 _symmetry_equiv_pos_as_xyz
  1  'x, y, z'
loop_
 _atom_site_type_symbol
 _atom_site_label
 _atom_site_symmetry_multiplicity
 _atom_site_fract_x
 _atom_site_fract_y
 _atom_site_fract_z
 _atom_site_occupancy
  Li  Li0  1  1.000000  0.500000  0.500000  1
  Li  Li1  1  0.500000  1.000000  0.500000  1
  Li  Li2  1  0.000000  0.000000  0.000000  1
  Co  Co3  1  0.000000  1.000000  0.500000  1
  Co  Co4  1  0.500000  0.000000  0.000000  1
  Co  Co5  1  1.000000  0.500000  0.000000  1
  Co  Co6  1  0.500000  0.500000  0.000000  1
  Sb  Sb7  1  0.500000  0.500000  0.500000  1
  O  O8  1  0.740214  0.259786  0.744742  1
  O  O9  1  0.271078  0.263345  0.271542  1
  O  O10  1  0.736655  0.728922  0.271542  1
  O  O11  1  0.259786  0.740214  0.255258  1
  O  O12  1  0.250058  0.749942  0.769219  1
  O  O13  1  0.728922  0.736655  0.728458  1
  O  O14  1  0.263345  0.271078  0.728458  1
  O  O15  1  0.749942  0.250058  0.230781  1
