# generated using pymatgen
data_TmCuSi
_symmetry_space_group_name_H-M   'P 1'
_cell_length_a   4.12933734
_cell_length_b   4.12933734
_cell_length_c   7.27593757
_cell_angle_alpha   90.00000000
_cell_angle_beta   90.00000000
_cell_angle_gamma   120.00000000
_symmetry_Int_Tables_number   1
_chemical_formula_structural   TmCuSi
_chemical_formula_sum   'Tm2 Cu2 Si2'
_cell_volume   107.44354334
_cell_formula_units_Z   2
loop_
 _symmetry_equiv_pos_site_id
 _symmetry_equiv_pos_as_xyz
  1  'x, y, z'
loop_
 _atom_site_type_symbol
 _atom_site_label
 _atom_site_symmetry_multiplicity
 _atom_site_fract_x
 _atom_site_fract_y
 _atom_site_fract_z
 _atom_site_occupancy
  Tm  Tm0  1  0.000000  0.000000  0.500000  1
  Tm  Tm1  1  0.000000  0.000000  0.000000  1
  Cu  Cu2  1  0.333333  0.666667  0.250000  1
  Cu  Cu3  1  0.666667  0.333333  0.750000  1
  Si  Si4  1  0.666667  0.333333  0.250000  1
  Si  Si5  1  0.333333  0.666667  0.750000  1
