# generated using pymatgen
data_GaPt3
_symmetry_space_group_name_H-M   'P 1'
_cell_length_a   5.60359366
_cell_length_b   5.60359366
_cell_length_c   5.60359366
_cell_angle_alpha   120.67506720
_cell_angle_beta   120.67506720
_cell_angle_gamma   88.83467285
_symmetry_Int_Tables_number   1
_chemical_formula_structural   GaPt3
_chemical_formula_sum   'Ga2 Pt6'
_cell_volume   123.12134214
_cell_formula_units_Z   2
loop_
 _symmetry_equiv_pos_site_id
 _symmetry_equiv_pos_as_xyz
  1  'x, y, z'
loop_
 _atom_site_type_symbol
 _atom_site_label
 _atom_site_symmetry_multiplicity
 _atom_site_fract_x
 _atom_site_fract_y
 _atom_site_fract_z
 _atom_site_occupancy
  Ga  Ga0  1  0.750000  0.250000  0.500000  1
  Ga  Ga1  1  0.250000  0.750000  0.500000  1
  Pt  Pt2  1  0.750000  0.750000  0.000000  1
  Pt  Pt3  1  0.250000  0.250000  0.000000  1
  Pt  Pt4  1  0.706593  0.793407  0.500000  1
  Pt  Pt5  1  0.293407  0.206593  0.500000  1
  Pt  Pt6  1  0.206593  0.706593  0.913185  1
  Pt  Pt7  1  0.793407  0.293407  0.086815  1
