# generated using pymatgen
data_CrFe3Ni2(PO4)6
_symmetry_space_group_name_H-M   'P 1'
_cell_length_a   8.46520802
_cell_length_b   8.46520802
_cell_length_c   8.46520802
_cell_angle_alpha   61.16523548
_cell_angle_beta   61.16523548
_cell_angle_gamma   61.16523548
_symmetry_Int_Tables_number   1
_chemical_formula_structural   CrFe3Ni2(PO4)6
_chemical_formula_sum   'Cr1 Fe3 Ni2 P6 O24'
_cell_volume   440.18701564
_cell_formula_units_Z   1
loop_
 _symmetry_equiv_pos_site_id
 _symmetry_equiv_pos_as_xyz
  1  'x, y, z'
loop_
 _atom_site_type_symbol
 _atom_site_label
 _atom_site_symmetry_multiplicity
 _atom_site_fract_x
 _atom_site_fract_y
 _atom_site_fract_z
 _atom_site_occupancy
  Cr  Cr0  1  0.142038  0.142038  0.142038  1
  Fe  Fe1  1  0.855994  0.855994  0.855994  1
  Fe  Fe2  1  0.644421  0.644421  0.644421  1
  Fe  Fe3  1  0.355994  0.355994  0.355994  1
  Ni  Ni4  1  0.998904  0.998904  0.998904  1
  Ni  Ni5  1  0.499670  0.499670  0.499670  1
  P  P6  1  0.954829  0.250302  0.545356  1
  P  P7  1  0.545356  0.954829  0.250302  1
  P  P8  1  0.250302  0.545356  0.954829  1
  P  P9  1  0.750865  0.453520  0.047709  1
  P  P10  1  0.453520  0.047709  0.750865  1
  P  P11  1  0.047709  0.750865  0.453520  1
  O  O12  1  0.890393  0.685686  0.490311  1
  O  O13  1  0.685686  0.490311  0.890393  1
  O  O14  1  0.939740  0.091646  0.743474  1
  O  O15  1  0.490311  0.890393  0.685686  1
  O  O16  1  0.000538  0.178632  0.384472  1
  O  O17  1  0.756695  0.407999  0.553003  1
  O  O18  1  0.743474  0.939740  0.091646  1
  O  O19  1  0.553003  0.756695  0.407999  1
  O  O20  1  0.823471  0.607843  0.005170  1
  O  O21  1  0.407999  0.553003  0.756695  1
  O  O22  1  0.913413  0.252626  0.063703  1
  O  O23  1  0.607843  0.005170  0.823471  1
  O  O24  1  0.384472  0.000538  0.178632  1
  O  O25  1  0.091646  0.743474  0.939740  1
  O  O26  1  0.594899  0.435963  0.247419  1
  O  O27  1  0.178632  0.384472  0.000538  1
  O  O28  1  0.435963  0.247419  0.594899  1
  O  O29  1  0.252626  0.063703  0.913413  1
  O  O30  1  0.247419  0.594899  0.435963  1
  O  O31  1  0.005170  0.823471  0.607843  1
  O  O32  1  0.502767  0.109970  0.320563  1
  O  O33  1  0.063703  0.913413  0.252626  1
  O  O34  1  0.320563  0.502767  0.109970  1
  O  O35  1  0.109970  0.320563  0.502767  1
