# generated using pymatgen
data_RePO5
_symmetry_space_group_name_H-M   'P 1'
_cell_length_a   8.81499053
_cell_length_b   8.81499053
_cell_length_c   5.25805238
_cell_angle_alpha   89.56458443
_cell_angle_beta   90.43541557
_cell_angle_gamma   90.31963354
_symmetry_Int_Tables_number   1
_chemical_formula_structural   RePO5
_chemical_formula_sum   'Re4 P4 O20'
_cell_volume   408.54218503
_cell_formula_units_Z   4
loop_
 _symmetry_equiv_pos_site_id
 _symmetry_equiv_pos_as_xyz
  1  'x, y, z'
loop_
 _atom_site_type_symbol
 _atom_site_label
 _atom_site_symmetry_multiplicity
 _atom_site_fract_x
 _atom_site_fract_y
 _atom_site_fract_z
 _atom_site_occupancy
  Re  Re0  1  0.752203  0.046020  0.238159  1
  Re  Re1  1  0.046020  0.752203  0.261841  1
  Re  Re2  1  0.247797  0.953980  0.761841  1
  Re  Re3  1  0.953980  0.247797  0.738159  1
  P  P4  1  0.396259  0.163892  0.280002  1
  P  P5  1  0.163892  0.396259  0.219998  1
  P  P6  1  0.603741  0.836108  0.719998  1
  P  P7  1  0.836108  0.603741  0.780002  1
  O  O8  1  0.066753  0.307477  0.407545  1
  O  O9  1  0.307477  0.066753  0.092455  1
  O  O10  1  0.933247  0.692523  0.592455  1
  O  O11  1  0.692523  0.933247  0.907545  1
  O  O12  1  0.662789  0.662789  0.750000  1
  O  O13  1  0.337211  0.337211  0.250000  1
  O  O14  1  0.177532  0.564932  0.287952  1
  O  O15  1  0.564932  0.177532  0.212048  1
  O  O16  1  0.822468  0.435068  0.712048  1
  O  O17  1  0.435068  0.822468  0.787952  1
  O  O18  1  0.626142  0.886310  0.441399  1
  O  O19  1  0.886310  0.626142  0.058601  1
  O  O20  1  0.373858  0.113690  0.558601  1
  O  O21  1  0.113690  0.373858  0.941399  1
  O  O22  1  0.915408  0.915408  0.250000  1
  O  O23  1  0.084592  0.084592  0.750000  1
  O  O24  1  0.853187  0.182465  0.024396  1
  O  O25  1  0.182465  0.853187  0.475604  1
  O  O26  1  0.146813  0.817535  0.975604  1
  O  O27  1  0.817535  0.146813  0.524396  1
