# generated using pymatgen
data_Sr(Mo3S4)2
_symmetry_space_group_name_H-M   'P 1'
_cell_length_a   6.57126461
_cell_length_b   6.64736197
_cell_length_c   6.70561292
_cell_angle_alpha   89.52632143
_cell_angle_beta   89.66943844
_cell_angle_gamma   88.37451958
_symmetry_Int_Tables_number   1
_chemical_formula_structural   Sr(Mo3S4)2
_chemical_formula_sum   'Sr1 Mo6 S8'
_cell_volume   292.77936738
_cell_formula_units_Z   1
loop_
 _symmetry_equiv_pos_site_id
 _symmetry_equiv_pos_as_xyz
  1  'x, y, z'
loop_
 _atom_site_type_symbol
 _atom_site_label
 _atom_site_symmetry_multiplicity
 _atom_site_fract_x
 _atom_site_fract_y
 _atom_site_fract_z
 _atom_site_occupancy
  Sr  Sr0  1  0.000000  0.000000  0.000000  1
  Mo  Mo1  1  0.419220  0.228708  0.561736  1
  Mo  Mo2  1  0.764227  0.439320  0.579135  1
  Mo  Mo3  1  0.235773  0.560680  0.420865  1
  Mo  Mo4  1  0.435858  0.583140  0.771594  1
  Mo  Mo5  1  0.564142  0.416860  0.228406  1
  Mo  Mo6  1  0.580780  0.771292  0.438264  1
  S  S7  1  0.872141  0.615962  0.259575  1
  S  S8  1  0.127859  0.384038  0.740425  1
  S  S9  1  0.260232  0.875465  0.620158  1
  S  S10  1  0.739768  0.124535  0.379842  1
  S  S11  1  0.746726  0.760208  0.753578  1
  S  S12  1  0.253274  0.239792  0.246422  1
  S  S13  1  0.617543  0.264693  0.872434  1
  S  S14  1  0.382457  0.735307  0.127566  1
