# generated using pymatgen
data_Cs2MgP4(HO2)8
_symmetry_space_group_name_H-M   'P 1'
_cell_length_a   7.08131183
_cell_length_b   7.52918549
_cell_length_c   8.03264973
_cell_angle_alpha   96.49163370
_cell_angle_beta   111.07312820
_cell_angle_gamma   87.69122006
_symmetry_Int_Tables_number   1
_chemical_formula_structural   Cs2MgP4(HO2)8
_chemical_formula_sum   'Cs2 Mg1 P4 H8 O16'
_cell_volume   397.06862192
_cell_formula_units_Z   1
loop_
 _symmetry_equiv_pos_site_id
 _symmetry_equiv_pos_as_xyz
  1  'x, y, z'
loop_
 _atom_site_type_symbol
 _atom_site_label
 _atom_site_symmetry_multiplicity
 _atom_site_fract_x
 _atom_site_fract_y
 _atom_site_fract_z
 _atom_site_occupancy
  Cs  Cs0  1  0.909921  0.299112  0.279283  1
  Cs  Cs1  1  0.090079  0.700888  0.720717  1
  Mg  Mg2  1  0.500000  0.500000  0.500000  1
  P  P3  1  0.626499  0.748765  0.237398  1
  P  P4  1  0.221109  0.805214  0.248811  1
  P  P5  1  0.778891  0.194786  0.751189  1
  P  P6  1  0.373501  0.251235  0.762602  1
  H  H7  1  0.892807  0.751302  0.089083  1
  H  H8  1  0.389012  0.302047  0.156408  1
  H  H9  1  0.370369  0.176868  0.298251  1
  H  H10  1  0.728435  0.972665  0.451906  1
  H  H11  1  0.271565  0.027335  0.548094  1
  H  H12  1  0.629631  0.823132  0.701749  1
  H  H13  1  0.610988  0.697953  0.843592  1
  H  H14  1  0.107193  0.248698  0.910917  1
  O  O15  1  0.022112  0.801721  0.078471  1
  O  O16  1  0.695207  0.683995  0.082462  1
  O  O17  1  0.384421  0.782250  0.145815  1
  O  O18  1  0.425437  0.291236  0.286130  1
  O  O19  1  0.726039  0.937227  0.322584  1
  O  O20  1  0.257114  0.989756  0.354162  1
  O  O21  1  0.236719  0.647806  0.354612  1
  O  O22  1  0.664505  0.625625  0.382127  1
  O  O23  1  0.335495  0.374375  0.617873  1
  O  O24  1  0.763281  0.352194  0.645388  1
  O  O25  1  0.742886  0.010244  0.645838  1
  O  O26  1  0.273961  0.062773  0.677416  1
  O  O27  1  0.574563  0.708764  0.713870  1
  O  O28  1  0.615579  0.217750  0.854185  1
  O  O29  1  0.304793  0.316005  0.917538  1
  O  O30  1  0.977888  0.198279  0.921529  1
