# generated using pymatgen
data_Mn6O5F7
_symmetry_space_group_name_H-M   'P 1'
_cell_length_a   4.72404598
_cell_length_b   5.73637256
_cell_length_c   15.64523413
_cell_angle_alpha   89.23732000
_cell_angle_beta   89.94197540
_cell_angle_gamma   86.95765565
_symmetry_Int_Tables_number   1
_chemical_formula_structural   Mn6O5F7
_chemical_formula_sum   'Mn12 O10 F14'
_cell_volume   423.33336688
_cell_formula_units_Z   2
loop_
 _symmetry_equiv_pos_site_id
 _symmetry_equiv_pos_as_xyz
  1  'x, y, z'
loop_
 _atom_site_type_symbol
 _atom_site_label
 _atom_site_symmetry_multiplicity
 _atom_site_fract_x
 _atom_site_fract_y
 _atom_site_fract_z
 _atom_site_occupancy
  Mn  Mn0  1  0.973184  0.834991  0.417375  1
  Mn  Mn1  1  0.962461  0.168899  0.245619  1
  Mn  Mn2  1  0.998171  0.852436  0.077458  1
  Mn  Mn3  1  0.982790  0.820412  0.752498  1
  Mn  Mn4  1  0.993856  0.162672  0.575992  1
  Mn  Mn5  1  0.981062  0.141877  0.909970  1
  Mn  Mn6  1  0.501016  0.651960  0.586766  1
  Mn  Mn7  1  0.524865  0.670590  0.921805  1
  Mn  Mn8  1  0.477940  0.642625  0.260288  1
  Mn  Mn9  1  0.505338  0.351884  0.081907  1
  Mn  Mn10  1  0.524462  0.361573  0.415685  1
  Mn  Mn11  1  0.505074  0.357139  0.756811  1
  O  O12  1  0.791623  0.895938  0.969111  1
  O  O13  1  0.769721  0.117426  0.131493  1
  O  O14  1  0.769911  0.114647  0.467098  1
  O  O15  1  0.774703  0.107880  0.804972  1
  O  O16  1  0.709001  0.392575  0.308729  1
  O  O17  1  0.723275  0.610453  0.479013  1
  O  O18  1  0.719291  0.598695  0.816069  1
  O  O19  1  0.298852  0.630167  0.028486  1
  O  O20  1  0.259945  0.606161  0.364143  1
  O  O21  1  0.280781  0.613250  0.695158  1
  F  F22  1  0.755018  0.889188  0.302100  1
  F  F23  1  0.773706  0.888084  0.637861  1
  F  F24  1  0.726485  0.614126  0.152387  1
  F  F25  1  0.746630  0.394872  0.643025  1
  F  F26  1  0.753320  0.396336  0.979584  1
  F  F27  1  0.261642  0.376401  0.186725  1
  F  F28  1  0.288418  0.375724  0.524097  1
  F  F29  1  0.246674  0.373193  0.867703  1
  F  F30  1  0.220687  0.871826  0.193073  1
  F  F31  1  0.236483  0.878586  0.527726  1
  F  F32  1  0.222138  0.107464  0.355884  1
  F  F33  1  0.239545  0.129345  0.014735  1
  F  F34  1  0.253355  0.874277  0.856413  1
  F  F35  1  0.248573  0.126324  0.692236  1
