# generated using pymatgen
data_Li2Mn5(CuO6)2
_symmetry_space_group_name_H-M   'P 1'
_cell_length_a   5.37320541
_cell_length_b   8.76543350
_cell_length_c   9.73039045
_cell_angle_alpha   90.00000000
_cell_angle_beta   98.11040277
_cell_angle_gamma   90.00000000
_symmetry_Int_Tables_number   1
_chemical_formula_structural   Li2Mn5(CuO6)2
_chemical_formula_sum   'Li4 Mn10 Cu4 O24'
_cell_volume   453.70279330
_cell_formula_units_Z   2
loop_
 _symmetry_equiv_pos_site_id
 _symmetry_equiv_pos_as_xyz
  1  'x, y, z'
loop_
 _atom_site_type_symbol
 _atom_site_label
 _atom_site_symmetry_multiplicity
 _atom_site_fract_x
 _atom_site_fract_y
 _atom_site_fract_z
 _atom_site_occupancy
  Li  Li0  1  0.470666  0.905530  0.734325  1
  Li  Li1  1  0.747132  0.579134  0.507516  1
  Li  Li2  1  0.529334  0.405530  0.265675  1
  Li  Li3  1  0.252868  0.079134  0.492484  1
  Mn  Mn4  1  0.246212  0.924514  0.001764  1
  Mn  Mn5  1  0.755648  0.914287  0.500181  1
  Mn  Mn6  1  0.997191  0.743357  0.744326  1
  Mn  Mn7  1  0.257565  0.587024  0.000197  1
  Mn  Mn8  1  0.508065  0.753512  0.256836  1
  Mn  Mn9  1  0.244352  0.414287  0.499819  1
  Mn  Mn10  1  0.753788  0.424514  0.998236  1
  Mn  Mn11  1  0.002809  0.243357  0.255674  1
  Mn  Mn12  1  0.491935  0.253512  0.743164  1
  Mn  Mn13  1  0.742435  0.087024  0.999803  1
  Cu  Cu14  1  0.247582  0.739640  0.493232  1
  Cu  Cu15  1  0.758362  0.753332  0.009042  1
  Cu  Cu16  1  0.241638  0.253332  0.990958  1
  Cu  Cu17  1  0.752418  0.239640  0.506768  1
  O  O18  1  0.110387  0.889053  0.602558  1
  O  O19  1  0.900231  0.914380  0.900992  1
  O  O20  1  0.188377  0.750764  0.126261  1
  O  O21  1  0.590577  0.919491  0.099542  1
  O  O22  1  0.821458  0.761760  0.371900  1
  O  O23  1  0.408902  0.894555  0.400734  1
  O  O24  1  0.121682  0.587851  0.599063  1
  O  O25  1  0.676735  0.766864  0.634705  1
  O  O26  1  0.914836  0.598807  0.898487  1
  O  O27  1  0.320321  0.757770  0.866339  1
  O  O28  1  0.099769  0.414380  0.099008  1
  O  O29  1  0.595519  0.590696  0.112463  1
  O  O30  1  0.889613  0.389053  0.397442  1
  O  O31  1  0.375377  0.582345  0.390946  1
  O  O32  1  0.178542  0.261760  0.628100  1
  O  O33  1  0.591098  0.394555  0.599266  1
  O  O34  1  0.811623  0.250764  0.873739  1
  O  O35  1  0.409423  0.419491  0.900458  1
  O  O36  1  0.085164  0.098807  0.101513  1
  O  O37  1  0.679679  0.257770  0.133661  1
  O  O38  1  0.878318  0.087851  0.400937  1
  O  O39  1  0.323265  0.266864  0.365295  1
  O  O40  1  0.624623  0.082345  0.609054  1
  O  O41  1  0.404481  0.090696  0.887537  1
