# generated using pymatgen
data_Li3Mn2(PO4)3
_symmetry_space_group_name_H-M   'P 1'
_cell_length_a   8.56196782
_cell_length_b   8.56196782
_cell_length_c   8.71180597
_cell_angle_alpha   61.79418391
_cell_angle_beta   118.20581609
_cell_angle_gamma   118.46854667
_symmetry_Int_Tables_number   1
_chemical_formula_structural   Li3Mn2(PO4)3
_chemical_formula_sum   'Li6 Mn4 P6 O24'
_cell_volume   468.85424350
_cell_formula_units_Z   2
loop_
 _symmetry_equiv_pos_site_id
 _symmetry_equiv_pos_as_xyz
  1  'x, y, z'
loop_
 _atom_site_type_symbol
 _atom_site_label
 _atom_site_symmetry_multiplicity
 _atom_site_fract_x
 _atom_site_fract_y
 _atom_site_fract_z
 _atom_site_occupancy
  Li  Li0  1  0.985940  0.488391  0.223199  1
  Li  Li1  1  0.345358  0.345358  0.500000  1
  Li  Li2  1  0.488391  0.985940  0.776801  1
  Li  Li3  1  0.667251  0.667251  0.000000  1
  Li  Li4  1  0.842800  0.239259  0.603088  1
  Li  Li5  1  0.239259  0.842800  0.396912  1
  Mn  Mn6  1  0.143305  0.356603  0.107407  1
  Mn  Mn7  1  0.356603  0.143305  0.892593  1
  Mn  Mn8  1  0.642950  0.849540  0.601745  1
  Mn  Mn9  1  0.849540  0.642950  0.398255  1
  P  P10  1  0.448909  0.746198  0.195336  1
  P  P11  1  0.746198  0.448909  0.804664  1
  P  P12  1  0.044922  0.044922  0.500000  1
  P  P13  1  0.966324  0.966324  0.000000  1
  P  P14  1  0.248636  0.542904  0.704765  1
  P  P15  1  0.542904  0.248636  0.295235  1
  O  O16  1  0.504964  0.214282  0.123193  1
  O  O17  1  0.126897  0.001674  0.941735  1
  O  O18  1  0.265196  0.569803  0.195295  1
  O  O19  1  0.291995  0.386879  0.709082  1
  O  O20  1  0.430341  0.899696  0.008299  1
  O  O21  1  0.617186  0.693398  0.229311  1
  O  O22  1  0.899696  0.430341  0.991701  1
  O  O23  1  0.569803  0.265196  0.804705  1
  O  O24  1  0.238435  0.066118  0.653112  1
  O  O25  1  0.001674  0.126897  0.058265  1
  O  O26  1  0.948603  0.773606  0.156075  1
  O  O27  1  0.214282  0.504964  0.876807  1
  O  O28  1  0.797101  0.471811  0.646730  1
  O  O29  1  0.066118  0.238435  0.346888  1
  O  O30  1  0.011158  0.884363  0.440368  1
  O  O31  1  0.773606  0.948603  0.843925  1
  O  O32  1  0.410103  0.738967  0.678595  1
  O  O33  1  0.080339  0.568795  0.519733  1
  O  O34  1  0.386879  0.291995  0.290918  1
  O  O35  1  0.568795  0.080339  0.480267  1
  O  O36  1  0.693398  0.617186  0.770689  1
  O  O37  1  0.738967  0.410103  0.321405  1
  O  O38  1  0.884363  0.011158  0.559632  1
  O  O39  1  0.471811  0.797101  0.353270  1
