# generated using pymatgen
data_Ti3O5
_symmetry_space_group_name_H-M   'P 1'
_cell_length_a   5.29929508
_cell_length_b   5.29929508
_cell_length_c   10.07120822
_cell_angle_alpha   90.00000000
_cell_angle_beta   90.00000000
_cell_angle_gamma   138.01971575
_symmetry_Int_Tables_number   1
_chemical_formula_structural   Ti3O5
_chemical_formula_sum   'Ti6 O10'
_cell_volume   189.17452198
_cell_formula_units_Z   2
loop_
 _symmetry_equiv_pos_site_id
 _symmetry_equiv_pos_as_xyz
  1  'x, y, z'
loop_
 _atom_site_type_symbol
 _atom_site_label
 _atom_site_symmetry_multiplicity
 _atom_site_fract_x
 _atom_site_fract_y
 _atom_site_fract_z
 _atom_site_occupancy
  Ti  Ti0  1  0.698288  0.301712  0.250000  1
  Ti  Ti1  1  0.301712  0.698288  0.750000  1
  Ti  Ti2  1  0.369398  0.630602  0.057277  1
  Ti  Ti3  1  0.630602  0.369398  0.942723  1
  Ti  Ti4  1  0.630602  0.369398  0.557277  1
  Ti  Ti5  1  0.369398  0.630602  0.442723  1
  O  O6  1  0.732517  0.267483  0.750000  1
  O  O7  1  0.267483  0.732517  0.250000  1
  O  O8  1  0.448517  0.551483  0.877313  1
  O  O9  1  0.551483  0.448517  0.122687  1
  O  O10  1  0.551483  0.448517  0.377313  1
  O  O11  1  0.448517  0.551483  0.622687  1
  O  O12  1  0.817072  0.182928  0.430980  1
  O  O13  1  0.182928  0.817072  0.569020  1
  O  O14  1  0.182928  0.817072  0.930980  1
  O  O15  1  0.817072  0.182928  0.069020  1
