# generated using pymatgen
data_LiCu2F5
_symmetry_space_group_name_H-M   'P 1'
_cell_length_a   3.14399788
_cell_length_b   10.02313266
_cell_length_c   13.42653489
_cell_angle_alpha   90.00000000
_cell_angle_beta   90.00000000
_cell_angle_gamma   90.00000000
_symmetry_Int_Tables_number   1
_chemical_formula_structural   LiCu2F5
_chemical_formula_sum   'Li4 Cu8 F20'
_cell_volume   423.10647121
_cell_formula_units_Z   4
loop_
 _symmetry_equiv_pos_site_id
 _symmetry_equiv_pos_as_xyz
  1  'x, y, z'
loop_
 _atom_site_type_symbol
 _atom_site_label
 _atom_site_symmetry_multiplicity
 _atom_site_fract_x
 _atom_site_fract_y
 _atom_site_fract_z
 _atom_site_occupancy
  Li  Li0  1  0.236091  0.250000  0.232340  1
  Li  Li1  1  0.736091  0.750000  0.267660  1
  Li  Li2  1  0.263909  0.250000  0.732340  1
  Li  Li3  1  0.763909  0.750000  0.767660  1
  Cu  Cu4  1  0.725889  0.409784  0.072532  1
  Cu  Cu5  1  0.725889  0.090216  0.072532  1
  Cu  Cu6  1  0.225889  0.909784  0.427468  1
  Cu  Cu7  1  0.225889  0.590216  0.427468  1
  Cu  Cu8  1  0.774111  0.409784  0.572532  1
  Cu  Cu9  1  0.774111  0.090216  0.572532  1
  Cu  Cu10  1  0.274111  0.909784  0.927468  1
  Cu  Cu11  1  0.274111  0.590216  0.927468  1
  F  F12  1  0.104313  0.250000  0.054805  1
  F  F13  1  0.291336  0.945519  0.069868  1
  F  F14  1  0.291336  0.554481  0.069868  1
  F  F15  1  0.723535  0.376669  0.208653  1
  F  F16  1  0.723535  0.123331  0.208653  1
  F  F17  1  0.223535  0.876669  0.291347  1
  F  F18  1  0.223535  0.623331  0.291347  1
  F  F19  1  0.791336  0.445519  0.430132  1
  F  F20  1  0.791336  0.054481  0.430132  1
  F  F21  1  0.604313  0.750000  0.445195  1
  F  F22  1  0.395687  0.250000  0.554805  1
  F  F23  1  0.208664  0.945519  0.569868  1
  F  F24  1  0.208664  0.554481  0.569868  1
  F  F25  1  0.776465  0.376669  0.708653  1
  F  F26  1  0.776465  0.123331  0.708653  1
  F  F27  1  0.276465  0.876669  0.791347  1
  F  F28  1  0.276465  0.623331  0.791347  1
  F  F29  1  0.708664  0.445519  0.930132  1
  F  F30  1  0.708664  0.054481  0.930132  1
  F  F31  1  0.895687  0.750000  0.945195  1
