# generated using pymatgen
data_P4WO12
_symmetry_space_group_name_H-M   'P 1'
_cell_length_a   8.42362616
_cell_length_b   9.59297290
_cell_length_c   12.96770269
_cell_angle_alpha   90.00000000
_cell_angle_beta   90.00000000
_cell_angle_gamma   90.00000000
_symmetry_Int_Tables_number   1
_chemical_formula_structural   P4WO12
_chemical_formula_sum   'P16 W4 O48'
_cell_volume   1047.88915847
_cell_formula_units_Z   4
loop_
 _symmetry_equiv_pos_site_id
 _symmetry_equiv_pos_as_xyz
  1  'x, y, z'
loop_
 _atom_site_type_symbol
 _atom_site_label
 _atom_site_symmetry_multiplicity
 _atom_site_fract_x
 _atom_site_fract_y
 _atom_site_fract_z
 _atom_site_occupancy
  P  P0  1  0.175918  0.502141  0.139274  1
  P  P1  1  0.824082  0.002141  0.139274  1
  P  P2  1  0.468718  0.012415  0.153757  1
  P  P3  1  0.531282  0.512415  0.153757  1
  P  P4  1  0.031282  0.512415  0.346243  1
  P  P5  1  0.968718  0.012415  0.346243  1
  P  P6  1  0.324082  0.002141  0.360726  1
  P  P7  1  0.675918  0.502141  0.360726  1
  P  P8  1  0.324082  0.497859  0.639274  1
  P  P9  1  0.675918  0.997859  0.639274  1
  P  P10  1  0.031282  0.987585  0.653757  1
  P  P11  1  0.968718  0.487585  0.653757  1
  P  P12  1  0.468718  0.487585  0.846243  1
  P  P13  1  0.531282  0.987585  0.846243  1
  P  P14  1  0.175918  0.997859  0.860726  1
  P  P15  1  0.824082  0.497859  0.860726  1
  W  W16  1  0.639998  0.250000  0.000000  1
  W  W17  1  0.360002  0.750000  0.000000  1
  W  W18  1  0.139998  0.250000  0.500000  1
  W  W19  1  0.860002  0.750000  0.500000  1
  O  O20  1  0.191650  0.627930  0.067894  1
  O  O21  1  0.808350  0.127930  0.067894  1
  O  O22  1  0.533864  0.626544  0.072639  1
  O  O23  1  0.466136  0.126544  0.072639  1
  O  O24  1  0.091062  0.376618  0.107848  1
  O  O25  1  0.908938  0.876618  0.107848  1
  O  O26  1  0.624069  0.381938  0.124671  1
  O  O27  1  0.375931  0.881938  0.124671  1
  O  O28  1  0.643674  0.965638  0.181091  1
  O  O29  1  0.356326  0.465638  0.181091  1
  O  O30  1  0.105057  0.574914  0.244668  1
  O  O31  1  0.894943  0.074914  0.244668  1
  O  O32  1  0.394943  0.074914  0.255332  1
  O  O33  1  0.605057  0.574914  0.255332  1
  O  O34  1  0.856326  0.465638  0.318909  1
  O  O35  1  0.143674  0.965638  0.318909  1
  O  O36  1  0.875931  0.881938  0.375329  1
  O  O37  1  0.124069  0.381938  0.375329  1
  O  O38  1  0.591062  0.376618  0.392152  1
  O  O39  1  0.408938  0.876618  0.392152  1
  O  O40  1  0.033864  0.626544  0.427361  1
  O  O41  1  0.966136  0.126544  0.427361  1
  O  O42  1  0.691650  0.627930  0.432106  1
  O  O43  1  0.308350  0.127930  0.432106  1
  O  O44  1  0.308350  0.372070  0.567894  1
  O  O45  1  0.691650  0.872070  0.567894  1
  O  O46  1  0.033864  0.873456  0.572639  1
  O  O47  1  0.966136  0.373456  0.572639  1
  O  O48  1  0.408938  0.623382  0.607848  1
  O  O49  1  0.591062  0.123382  0.607848  1
  O  O50  1  0.124069  0.118062  0.624671  1
  O  O51  1  0.875931  0.618062  0.624671  1
  O  O52  1  0.143674  0.534362  0.681091  1
  O  O53  1  0.856326  0.034362  0.681091  1
  O  O54  1  0.394943  0.425086  0.744668  1
  O  O55  1  0.605057  0.925086  0.744668  1
  O  O56  1  0.105057  0.925086  0.755332  1
  O  O57  1  0.894943  0.425086  0.755332  1
  O  O58  1  0.356326  0.034362  0.818909  1
  O  O59  1  0.643674  0.534362  0.818909  1
  O  O60  1  0.375931  0.618062  0.875329  1
  O  O61  1  0.624069  0.118062  0.875329  1
  O  O62  1  0.091062  0.123382  0.892152  1
  O  O63  1  0.908938  0.623382  0.892152  1
  O  O64  1  0.466136  0.373456  0.927361  1
  O  O65  1  0.533864  0.873456  0.927361  1
  O  O66  1  0.191650  0.872070  0.932106  1
  O  O67  1  0.808350  0.372070  0.932106  1
