# generated using pymatgen
data_H11S2N3O7
_symmetry_space_group_name_H-M   'P 1'
_cell_length_a   6.15473671
_cell_length_b   9.95353939
_cell_length_c   13.24283763
_cell_angle_alpha   90.00000000
_cell_angle_beta   90.00000000
_cell_angle_gamma   90.00000000
_symmetry_Int_Tables_number   1
_chemical_formula_structural   H11S2N3O7
_chemical_formula_sum   'H44 S8 N12 O28'
_cell_volume   811.27496227
_cell_formula_units_Z   4
loop_
 _symmetry_equiv_pos_site_id
 _symmetry_equiv_pos_as_xyz
  1  'x, y, z'
loop_
 _atom_site_type_symbol
 _atom_site_label
 _atom_site_symmetry_multiplicity
 _atom_site_fract_x
 _atom_site_fract_y
 _atom_site_fract_z
 _atom_site_occupancy
  H  H0  1  0.716999  0.051848  0.354506  1
  H  H1  1  0.681264  0.017707  0.977564  1
  H  H2  1  0.033758  0.071116  0.617697  1
  H  H3  1  0.178939  0.062642  0.322236  1
  H  H4  1  0.307778  0.088652  0.588610  1
  H  H5  1  0.703538  0.080477  0.094286  1
  H  H6  1  0.231538  0.134293  0.206598  1
  H  H7  1  0.834383  0.159459  0.999877  1
  H  H8  1  0.563224  0.168755  0.006011  1
  H  H9  1  0.363328  0.185995  0.312415  1
  H  H10  1  0.101092  0.222912  0.295562  1
  H  H11  1  0.601092  0.277088  0.795562  1
  H  H12  1  0.863328  0.314005  0.812415  1
  H  H13  1  0.063224  0.331245  0.506011  1
  H  H14  1  0.334383  0.340541  0.499877  1
  H  H15  1  0.731538  0.365707  0.706598  1
  H  H16  1  0.203538  0.419523  0.594286  1
  H  H17  1  0.807778  0.411348  0.088610  1
  H  H18  1  0.678939  0.437358  0.822236  1
  H  H19  1  0.533758  0.428884  0.117697  1
  H  H20  1  0.181264  0.482293  0.477564  1
  H  H21  1  0.216999  0.448152  0.854506  1
  H  H22  1  0.716999  0.551848  0.145494  1
  H  H23  1  0.681264  0.517707  0.522436  1
  H  H24  1  0.033758  0.571116  0.882303  1
  H  H25  1  0.178939  0.562642  0.177764  1
  H  H26  1  0.307778  0.588652  0.911390  1
  H  H27  1  0.703538  0.580477  0.405714  1
  H  H28  1  0.231538  0.634293  0.293402  1
  H  H29  1  0.834383  0.659459  0.500123  1
  H  H30  1  0.563224  0.668755  0.493989  1
  H  H31  1  0.363328  0.685995  0.187585  1
  H  H32  1  0.101092  0.722912  0.204438  1
  H  H33  1  0.601092  0.777088  0.704438  1
  H  H34  1  0.863328  0.814005  0.687585  1
  H  H35  1  0.063224  0.831245  0.993989  1
  H  H36  1  0.334383  0.840541  0.000123  1
  H  H37  1  0.731538  0.865707  0.793402  1
  H  H38  1  0.203538  0.919523  0.905714  1
  H  H39  1  0.807778  0.911348  0.411390  1
  H  H40  1  0.678939  0.937358  0.677764  1
  H  H41  1  0.533758  0.928884  0.382303  1
  H  H42  1  0.181264  0.982293  0.022436  1
  H  H43  1  0.216999  0.948152  0.645494  1
  S  S44  1  0.220255  0.128832  0.764419  1
  S  S45  1  0.702776  0.202293  0.535217  1
  S  S46  1  0.202776  0.297707  0.035217  1
  S  S47  1  0.720255  0.371168  0.264419  1
  S  S48  1  0.220255  0.628832  0.735581  1
  S  S49  1  0.702776  0.702293  0.964783  1
  S  S50  1  0.202776  0.797707  0.464783  1
  S  S51  1  0.720255  0.871168  0.235581  1
  N  N52  1  0.194612  0.050990  0.641012  1
  N  N53  1  0.695702  0.106042  0.019082  1
  N  N54  1  0.218357  0.150620  0.284555  1
  N  N55  1  0.718357  0.349380  0.784555  1
  N  N56  1  0.195702  0.393958  0.519082  1
  N  N57  1  0.694612  0.449010  0.141012  1
  N  N58  1  0.194612  0.550990  0.858988  1
  N  N59  1  0.695702  0.606042  0.480918  1
  N  N60  1  0.218357  0.650620  0.215445  1
  N  N61  1  0.718357  0.849380  0.715445  1
  N  N62  1  0.195702  0.893958  0.980918  1
  N  N63  1  0.694612  0.949010  0.358988  1
  O  O64  1  0.030311  0.076100  0.816083  1
  O  O65  1  0.428319  0.079915  0.801396  1
  O  O66  1  0.750730  0.110658  0.621563  1
  O  O67  1  0.196035  0.155089  0.072563  1
  O  O68  1  0.485279  0.167211  0.491045  1
  O  O69  1  0.877394  0.189286  0.458000  1
  O  O70  1  0.711790  0.229645  0.237523  1
  O  O71  1  0.211790  0.270355  0.737523  1
  O  O72  1  0.377394  0.310714  0.958000  1
  O  O73  1  0.985279  0.332789  0.991045  1
  O  O74  1  0.696035  0.344911  0.572563  1
  O  O75  1  0.250730  0.389342  0.121563  1
  O  O76  1  0.928319  0.420085  0.301396  1
  O  O77  1  0.530311  0.423900  0.316083  1
  O  O78  1  0.030311  0.576100  0.683917  1
  O  O79  1  0.428319  0.579915  0.698604  1
  O  O80  1  0.750730  0.610658  0.878437  1
  O  O81  1  0.196035  0.655089  0.427437  1
  O  O82  1  0.485279  0.667211  0.008955  1
  O  O83  1  0.877394  0.689286  0.042000  1
  O  O84  1  0.711790  0.729645  0.262477  1
  O  O85  1  0.211790  0.770355  0.762477  1
  O  O86  1  0.377394  0.810714  0.542000  1
  O  O87  1  0.985279  0.832789  0.508955  1
  O  O88  1  0.696035  0.844911  0.927437  1
  O  O89  1  0.250730  0.889342  0.378437  1
  O  O90  1  0.928319  0.920085  0.198604  1
  O  O91  1  0.530311  0.923900  0.183917  1
