# generated using pymatgen
data_V3Cr2Sn(PO4)6
_symmetry_space_group_name_H-M   'P 1'
_cell_length_a   8.66337427
_cell_length_b   8.66337427
_cell_length_c   8.66337427
_cell_angle_alpha   60.08749396
_cell_angle_beta   60.08749396
_cell_angle_gamma   60.08749396
_symmetry_Int_Tables_number   1
_chemical_formula_structural   V3Cr2Sn(PO4)6
_chemical_formula_sum   'V3 Cr2 Sn1 P6 O24'
_cell_volume   460.68748834
_cell_formula_units_Z   1
loop_
 _symmetry_equiv_pos_site_id
 _symmetry_equiv_pos_as_xyz
  1  'x, y, z'
loop_
 _atom_site_type_symbol
 _atom_site_label
 _atom_site_symmetry_multiplicity
 _atom_site_fract_x
 _atom_site_fract_y
 _atom_site_fract_z
 _atom_site_occupancy
  V  V0  1  0.643765  0.643765  0.643765  1
  V  V1  1  0.856447  0.856447  0.856447  1
  V  V2  1  0.357518  0.357518  0.357518  1
  Cr  Cr3  1  0.997468  0.997468  0.997468  1
  Cr  Cr4  1  0.500691  0.500691  0.500691  1
  Sn  Sn5  1  0.144606  0.144606  0.144606  1
  P  P6  1  0.954329  0.251929  0.548439  1
  P  P7  1  0.548439  0.954329  0.251929  1
  P  P8  1  0.251929  0.548439  0.954329  1
  P  P9  1  0.746125  0.460936  0.042569  1
  P  P10  1  0.460936  0.042569  0.746125  1
  P  P11  1  0.042569  0.746125  0.460936  1
  O  O12  1  0.505351  0.114717  0.308405  1
  O  O13  1  0.308405  0.505351  0.114717  1
  O  O14  1  0.114717  0.308405  0.505351  1
  O  O15  1  0.937571  0.088763  0.742806  1
  O  O16  1  0.982239  0.190354  0.393393  1
  O  O17  1  0.758563  0.413370  0.564072  1
  O  O18  1  0.742806  0.937571  0.088763  1
  O  O19  1  0.564072  0.758563  0.413370  1
  O  O20  1  0.811139  0.613349  0.006054  1
  O  O21  1  0.413370  0.564072  0.758563  1
  O  O22  1  0.909927  0.260366  0.056229  1
  O  O23  1  0.613349  0.006054  0.811139  1
  O  O24  1  0.393393  0.982239  0.190354  1
  O  O25  1  0.088763  0.742806  0.937571  1
  O  O26  1  0.587393  0.441061  0.240430  1
  O  O27  1  0.190354  0.393393  0.982239  1
  O  O28  1  0.441061  0.240430  0.587393  1
  O  O29  1  0.260366  0.056229  0.909927  1
  O  O30  1  0.240430  0.587393  0.441061  1
  O  O31  1  0.006054  0.811139  0.613349  1
  O  O32  1  0.056229  0.909927  0.260366  1
  O  O33  1  0.886964  0.685435  0.497226  1
  O  O34  1  0.685435  0.497226  0.886964  1
  O  O35  1  0.497226  0.886964  0.685435  1
