# generated using pymatgen
data_Cs2Li2GeO4
_symmetry_space_group_name_H-M   'P 1'
_cell_length_a   5.74454599
_cell_length_b   5.89747933
_cell_length_c   9.66355199
_cell_angle_alpha   84.47913805
_cell_angle_beta   76.58705401
_cell_angle_gamma   86.53908513
_symmetry_Int_Tables_number   1
_chemical_formula_structural   Cs2Li2GeO4
_chemical_formula_sum   'Cs4 Li4 Ge2 O8'
_cell_volume   316.73307394
_cell_formula_units_Z   2
loop_
 _symmetry_equiv_pos_site_id
 _symmetry_equiv_pos_as_xyz
  1  'x, y, z'
loop_
 _atom_site_type_symbol
 _atom_site_label
 _atom_site_symmetry_multiplicity
 _atom_site_fract_x
 _atom_site_fract_y
 _atom_site_fract_z
 _atom_site_occupancy
  Cs  Cs0  1  0.214323  0.266301  0.987766  1
  Cs  Cs1  1  0.785677  0.733699  0.012234  1
  Cs  Cs2  1  0.485315  0.855146  0.707876  1
  Cs  Cs3  1  0.514685  0.144854  0.292124  1
  Li  Li4  1  0.066801  0.813217  0.559677  1
  Li  Li5  1  0.933199  0.186783  0.440323  1
  Li  Li6  1  0.694122  0.587199  0.420368  1
  Li  Li7  1  0.305878  0.412801  0.579632  1
  Ge  Ge8  1  0.862924  0.317280  0.704728  1
  Ge  Ge9  1  0.137076  0.682720  0.295272  1
  O  O10  1  0.018113  0.569671  0.711317  1
  O  O11  1  0.981887  0.430329  0.288683  1
  O  O12  1  0.903459  0.862335  0.398620  1
  O  O13  1  0.096541  0.137665  0.601380  1
  O  O14  1  0.734790  0.199058  0.878289  1
  O  O15  1  0.265210  0.800942  0.121711  1
  O  O16  1  0.353436  0.639780  0.406621  1
  O  O17  1  0.646564  0.360220  0.593379  1
