# generated using pymatgen
data_Li21(Co4O9)2
_symmetry_space_group_name_H-M   'P 1'
_cell_length_a   7.69332269
_cell_length_b   7.80032122
_cell_length_c   9.73403267
_cell_angle_alpha   75.33991973
_cell_angle_beta   77.53073252
_cell_angle_gamma   60.65295594
_symmetry_Int_Tables_number   1
_chemical_formula_structural   Li21(Co4O9)2
_chemical_formula_sum   'Li21 Co8 O18'
_cell_volume   489.66912284
_cell_formula_units_Z   1
loop_
 _symmetry_equiv_pos_site_id
 _symmetry_equiv_pos_as_xyz
  1  'x, y, z'
loop_
 _atom_site_type_symbol
 _atom_site_label
 _atom_site_symmetry_multiplicity
 _atom_site_fract_x
 _atom_site_fract_y
 _atom_site_fract_z
 _atom_site_occupancy
  Li  Li0  1  0.030074  0.161973  0.132202  1
  Li  Li1  1  0.894364  0.614773  0.095340  1
  Li  Li2  1  0.418372  0.919640  0.133705  1
  Li  Li3  1  0.260598  0.335276  0.158002  1
  Li  Li4  1  0.174967  0.869171  0.345997  1
  Li  Li5  1  0.155345  0.713768  0.151692  1
  Li  Li6  1  0.528588  0.623426  0.392975  1
  Li  Li7  1  0.416939  0.077062  0.380125  1
  Li  Li8  1  0.301096  0.466683  0.376952  1
  Li  Li9  1  0.677720  0.186194  0.384680  1
  Li  Li10  1  0.332746  0.821287  0.604887  1
  Li  Li11  1  0.705362  0.538699  0.622533  1
  Li  Li12  1  0.587387  0.931218  0.623456  1
  Li  Li13  1  0.470340  0.378666  0.610091  1
  Li  Li14  1  0.846060  0.124466  0.630759  1
  Li  Li15  1  0.844916  0.314826  0.853390  1
  Li  Li16  1  0.733620  0.677612  0.846643  1
  Li  Li17  1  0.493773  0.115460  0.888633  1
  Li  Li18  1  0.788915  0.053871  0.855311  1
  Li  Li19  1  0.094789  0.385074  0.905232  1
  Li  Li20  1  0.029570  0.786163  0.843657  1
  Co  Co21  1  0.030297  0.668334  0.623631  1
  Co  Co22  1  0.838076  0.752723  0.369388  1
  Co  Co23  1  0.179223  0.235764  0.634136  1
  Co  Co24  1  0.271444  0.964916  0.852936  1
  Co  Co25  1  0.581516  0.475505  0.118253  1
  Co  Co26  1  0.716527  0.036763  0.144298  1
  Co  Co27  1  0.981096  0.311127  0.374016  1
  Co  Co28  1  0.408222  0.531276  0.878145  1
  O  O29  1  0.710645  0.904649  0.019907  1
  O  O30  1  0.392798  0.680168  0.223715  1
  O  O31  1  0.200345  0.115187  0.285519  1
  O  O32  1  0.515241  0.258711  0.224787  1
  O  O33  1  0.049626  0.532519  0.288743  1
  O  O34  1  0.922598  0.957817  0.263567  1
  O  O35  1  0.739162  0.346614  0.475049  1
  O  O36  1  0.595025  0.795005  0.468821  1
  O  O37  1  0.418413  0.206377  0.529618  1
  O  O38  1  0.265483  0.661812  0.525154  1
  O  O39  1  0.035933  0.052953  0.766690  1
  O  O40  1  0.945442  0.471017  0.712377  1
  O  O41  1  0.484345  0.733603  0.773880  1
  O  O42  1  0.815033  0.880836  0.714780  1
  O  O43  1  0.596696  0.312418  0.791568  1
  O  O44  1  0.261478  0.106417  0.981697  1
  O  O45  1  0.835783  0.435856  0.018871  1
  O  O46  1  0.170440  0.562193  0.984928  1
