# generated using pymatgen
data_BaGa12O19
_symmetry_space_group_name_H-M   'P 1'
_cell_length_a   5.88939499
_cell_length_b   5.88939499
_cell_length_c   23.29760471
_cell_angle_alpha   90.00000000
_cell_angle_beta   90.00000000
_cell_angle_gamma   120.00000000
_symmetry_Int_Tables_number   1
_chemical_formula_structural   BaGa12O19
_chemical_formula_sum   'Ba2 Ga24 O38'
_cell_volume   699.81503557
_cell_formula_units_Z   2
loop_
 _symmetry_equiv_pos_site_id
 _symmetry_equiv_pos_as_xyz
  1  'x, y, z'
loop_
 _atom_site_type_symbol
 _atom_site_label
 _atom_site_symmetry_multiplicity
 _atom_site_fract_x
 _atom_site_fract_y
 _atom_site_fract_z
 _atom_site_occupancy
  Ba  Ba0  1  0.333333  0.666667  0.749187  1
  Ba  Ba1  1  0.666667  0.333333  0.249187  1
  Ga  Ga2  1  0.169065  0.830935  0.891916  1
  Ga  Ga3  1  0.167436  0.832564  0.608924  1
  Ga  Ga4  1  0.333333  0.666667  0.310540  1
  Ga  Ga5  1  0.167436  0.334873  0.608924  1
  Ga  Ga6  1  0.333333  0.666667  0.472882  1
  Ga  Ga7  1  0.169065  0.338130  0.891916  1
  Ga  Ga8  1  0.000000  0.000000  0.000335  1
  Ga  Ga9  1  0.000000  0.000000  0.500335  1
  Ga  Ga10  1  0.333333  0.666667  0.027568  1
  Ga  Ga11  1  0.000000  0.000000  0.258950  1
  Ga  Ga12  1  0.333333  0.666667  0.188796  1
  Ga  Ga13  1  0.000000  0.000000  0.758950  1
  Ga  Ga14  1  0.665127  0.832564  0.608924  1
  Ga  Ga15  1  0.661870  0.830935  0.891916  1
  Ga  Ga16  1  0.334873  0.167436  0.108924  1
  Ga  Ga17  1  0.338130  0.169065  0.391916  1
  Ga  Ga18  1  0.666667  0.333333  0.810540  1
  Ga  Ga19  1  0.666667  0.333333  0.972882  1
  Ga  Ga20  1  0.666667  0.333333  0.688796  1
  Ga  Ga21  1  0.666667  0.333333  0.527568  1
  Ga  Ga22  1  0.832564  0.665127  0.108924  1
  Ga  Ga23  1  0.830935  0.661870  0.391916  1
  Ga  Ga24  1  0.832564  0.167436  0.108924  1
  Ga  Ga25  1  0.830935  0.169065  0.391916  1
  O  O26  1  0.155599  0.844401  0.051725  1
  O  O27  1  0.154839  0.845161  0.447540  1
  O  O28  1  0.006170  0.503085  0.648608  1
  O  O29  1  0.006862  0.503431  0.851606  1
  O  O30  1  0.182108  0.817892  0.250782  1
  O  O31  1  0.333333  0.666667  0.554827  1
  O  O32  1  0.000000  0.000000  0.850321  1
  O  O33  1  0.155599  0.311198  0.051725  1
  O  O34  1  0.000000  0.000000  0.147640  1
  O  O35  1  0.000000  0.000000  0.350321  1
  O  O36  1  0.154839  0.309679  0.447540  1
  O  O37  1  0.000000  0.000000  0.647640  1
  O  O38  1  0.333333  0.666667  0.945222  1
  O  O39  1  0.182108  0.364215  0.250782  1
  O  O40  1  0.496915  0.993830  0.648608  1
  O  O41  1  0.496569  0.993138  0.851606  1
  O  O42  1  0.635785  0.817892  0.250782  1
  O  O43  1  0.311198  0.155599  0.551725  1
  O  O44  1  0.309679  0.154839  0.947540  1
  O  O45  1  0.496915  0.503085  0.648608  1
  O  O46  1  0.496569  0.503431  0.851606  1
  O  O47  1  0.503085  0.496915  0.148608  1
  O  O48  1  0.503431  0.496569  0.351606  1
  O  O49  1  0.688802  0.844401  0.051725  1
  O  O50  1  0.690321  0.845161  0.447540  1
  O  O51  1  0.364215  0.182108  0.750782  1
  O  O52  1  0.503085  0.006170  0.148608  1
  O  O53  1  0.666667  0.333333  0.445222  1
  O  O54  1  0.844401  0.688802  0.551725  1
  O  O55  1  0.666667  0.333333  0.054827  1
  O  O56  1  0.845161  0.690321  0.947540  1
  O  O57  1  0.817892  0.635785  0.750782  1
  O  O58  1  0.503431  0.006862  0.351606  1
  O  O59  1  0.817892  0.182108  0.750782  1
  O  O60  1  0.993830  0.496915  0.148608  1
  O  O61  1  0.993138  0.496569  0.351606  1
  O  O62  1  0.844401  0.155599  0.551725  1
  O  O63  1  0.845161  0.154839  0.947540  1
