# generated using pymatgen
data_CuH6BrN2
_symmetry_space_group_name_H-M   'P 1'
_cell_length_a   7.24993843
_cell_length_b   7.24993843
_cell_length_c   5.80565707
_cell_angle_alpha   78.93965747
_cell_angle_beta   101.06034253
_cell_angle_gamma   54.82683537
_symmetry_Int_Tables_number   1
_chemical_formula_structural   CuH6BrN2
_chemical_formula_sum   'Cu2 H12 Br2 N4'
_cell_volume   226.75235289
_cell_formula_units_Z   2
loop_
 _symmetry_equiv_pos_site_id
 _symmetry_equiv_pos_as_xyz
  1  'x, y, z'
loop_
 _atom_site_type_symbol
 _atom_site_label
 _atom_site_symmetry_multiplicity
 _atom_site_fract_x
 _atom_site_fract_y
 _atom_site_fract_z
 _atom_site_occupancy
  Cu  Cu0  1  0.000000  0.000000  0.000000  1
  Cu  Cu1  1  0.000000  0.000000  0.500000  1
  H  H2  1  0.180042  0.588815  0.787083  1
  H  H3  1  0.588815  0.180042  0.712917  1
  H  H4  1  0.145089  0.598264  0.491715  1
  H  H5  1  0.598264  0.145089  0.008285  1
  H  H6  1  0.711678  0.911016  0.912473  1
  H  H7  1  0.911016  0.711678  0.587527  1
  H  H8  1  0.088984  0.288322  0.412473  1
  H  H9  1  0.288322  0.088984  0.087527  1
  H  H10  1  0.401736  0.854911  0.991715  1
  H  H11  1  0.854911  0.401736  0.508285  1
  H  H12  1  0.411185  0.819958  0.287083  1
  H  H13  1  0.819958  0.411185  0.212917  1
  Br  Br14  1  0.363360  0.363360  0.250000  1
  Br  Br15  1  0.636640  0.636640  0.750000  1
  N  N16  1  0.063840  0.695165  0.599867  1
  N  N17  1  0.695165  0.063840  0.900133  1
  N  N18  1  0.304835  0.936160  0.099867  1
  N  N19  1  0.936160  0.304836  0.400133  1
