# generated using pymatgen
data_Er2(Ga3Co)3
_symmetry_space_group_name_H-M   'P 1'
_cell_length_a   7.33344242
_cell_length_b   7.33344242
_cell_length_c   9.35787566
_cell_angle_alpha   90.00000000
_cell_angle_beta   90.00000000
_cell_angle_gamma   119.79510124
_symmetry_Int_Tables_number   1
_chemical_formula_structural   Er2(Ga3Co)3
_chemical_formula_sum   'Er4 Ga18 Co6'
_cell_volume   436.73365834
_cell_formula_units_Z   2
loop_
 _symmetry_equiv_pos_site_id
 _symmetry_equiv_pos_as_xyz
  1  'x, y, z'
loop_
 _atom_site_type_symbol
 _atom_site_label
 _atom_site_symmetry_multiplicity
 _atom_site_fract_x
 _atom_site_fract_y
 _atom_site_fract_z
 _atom_site_occupancy
  Er  Er0  1  0.502964  0.831166  0.750000  1
  Er  Er1  1  0.497036  0.168834  0.250000  1
  Er  Er2  1  0.168834  0.497036  0.250000  1
  Er  Er3  1  0.831166  0.502964  0.750000  1
  Ga  Ga4  1  0.163367  0.948357  0.750000  1
  Ga  Ga5  1  0.836633  0.051643  0.250000  1
  Ga  Ga6  1  0.051643  0.836633  0.250000  1
  Ga  Ga7  1  0.948357  0.163367  0.750000  1
  Ga  Ga8  1  0.620392  0.620392  0.250000  1
  Ga  Ga9  1  0.379608  0.379608  0.750000  1
  Ga  Ga10  1  0.166700  0.166700  0.059099  1
  Ga  Ga11  1  0.833300  0.833300  0.559099  1
  Ga  Ga12  1  0.833300  0.833300  0.940901  1
  Ga  Ga13  1  0.166700  0.166700  0.440901  1
  Ga  Ga14  1  0.499497  0.834297  0.073262  1
  Ga  Ga15  1  0.500503  0.165703  0.573262  1
  Ga  Ga16  1  0.165703  0.500503  0.926738  1
  Ga  Ga17  1  0.834297  0.499497  0.426738  1
  Ga  Ga18  1  0.500503  0.165703  0.926738  1
  Ga  Ga19  1  0.499497  0.834297  0.426738  1
  Ga  Ga20  1  0.834297  0.499497  0.073262  1
  Ga  Ga21  1  0.165703  0.500503  0.573262  1
  Co  Co22  1  0.171186  0.828814  1.000000  1
  Co  Co23  1  0.500000  0.500000  0.500000  1
  Co  Co24  1  0.500000  0.500000  1.000000  1
  Co  Co25  1  0.828814  0.171186  0.500000  1
  Co  Co26  1  0.828814  0.171186  1.000000  1
  Co  Co27  1  0.171186  0.828814  0.500000  1
