# generated using pymatgen
data_Fe4O3F5
_symmetry_space_group_name_H-M   'P 1'
_cell_length_a   10.07937296
_cell_length_b   10.07937296
_cell_length_c   4.80012484
_cell_angle_alpha   86.09768982
_cell_angle_beta   93.90231018
_cell_angle_gamma   144.26306935
_symmetry_Int_Tables_number   1
_chemical_formula_structural   Fe4O3F5
_chemical_formula_sum   'Fe8 O6 F10'
_cell_volume   284.09742033
_cell_formula_units_Z   2
loop_
 _symmetry_equiv_pos_site_id
 _symmetry_equiv_pos_as_xyz
  1  'x, y, z'
loop_
 _atom_site_type_symbol
 _atom_site_label
 _atom_site_symmetry_multiplicity
 _atom_site_fract_x
 _atom_site_fract_y
 _atom_site_fract_z
 _atom_site_occupancy
  Fe  Fe0  1  0.880105  0.635643  0.488779  1
  Fe  Fe1  1  0.608417  0.864216  0.489466  1
  Fe  Fe2  1  0.135784  0.391583  0.489466  1
  Fe  Fe3  1  0.364357  0.119895  0.488779  1
  Fe  Fe4  1  0.499888  0.500112  0.000546  1
  Fe  Fe5  1  0.247263  0.752737  0.991102  1
  Fe  Fe6  1  0.002556  0.997444  0.010394  1
  Fe  Fe7  1  0.756696  0.243304  0.024002  1
  O  O8  1  0.576406  0.423594  0.301707  1
  O  O9  1  0.831803  0.168197  0.325205  1
  O  O10  1  0.076039  0.923961  0.311343  1
  O  O11  1  0.322290  0.677710  0.291427  1
  O  O12  1  0.424263  0.575737  0.698415  1
  O  O13  1  0.173853  0.826147  0.699471  1
  F  F14  1  0.955941  0.558003  0.198387  1
  F  F15  1  0.441997  0.044059  0.198387  1
  F  F16  1  0.687224  0.788361  0.199913  1
  F  F17  1  0.211639  0.312776  0.199913  1
  F  F18  1  0.925999  0.074001  0.704085  1
  F  F19  1  0.676428  0.323572  0.699948  1
  F  F20  1  0.539406  0.941086  0.795617  1
  F  F21  1  0.314208  0.213047  0.798962  1
  F  F22  1  0.058914  0.460594  0.795617  1
  F  F23  1  0.786953  0.685792  0.798962  1
