# generated using pymatgen
data_NaNb6O15F
_symmetry_space_group_name_H-M   'P 1'
_cell_length_a   9.14351125
_cell_length_b   9.14351125
_cell_length_c   3.95245120
_cell_angle_alpha   90.00000000
_cell_angle_beta   90.00000000
_cell_angle_gamma   109.84196408
_symmetry_Int_Tables_number   1
_chemical_formula_structural   NaNb6O15F
_chemical_formula_sum   'Na1 Nb6 O15 F1'
_cell_volume   310.82251279
_cell_formula_units_Z   1
loop_
 _symmetry_equiv_pos_site_id
 _symmetry_equiv_pos_as_xyz
  1  'x, y, z'
loop_
 _atom_site_type_symbol
 _atom_site_label
 _atom_site_symmetry_multiplicity
 _atom_site_fract_x
 _atom_site_fract_y
 _atom_site_fract_z
 _atom_site_occupancy
  Na  Na0  1  0.595669  0.404331  0.500000  1
  Nb  Nb1  1  0.372308  0.994541  0.000000  1
  Nb  Nb2  1  0.263271  0.377521  0.000000  1
  Nb  Nb3  1  0.622479  0.736729  1.000000  1
  Nb  Nb4  1  0.782359  0.217641  0.000000  1
  Nb  Nb5  1  0.000809  0.999191  0.000000  1
  Nb  Nb6  1  0.005459  0.627692  0.000000  1
  O  O7  1  0.009418  0.639159  0.500000  1
  O  O8  1  0.486769  0.513231  0.000000  1
  O  O9  1  0.136913  0.863087  0.000000  1
  O  O10  1  0.165839  0.531741  0.000000  1
  O  O11  1  0.468259  0.834161  0.000000  1
  O  O12  1  0.856869  0.768895  0.000000  1
  O  O13  1  0.231105  0.143131  0.000000  1
  O  O14  1  0.777740  0.222260  0.500000  1
  O  O15  1  0.635804  0.716138  0.500000  1
  O  O16  1  0.283862  0.364196  0.500000  1
  O  O17  1  0.360841  0.990582  0.500000  1
  O  O18  1  0.553955  0.180181  0.000000  1
  O  O19  1  0.772439  0.990071  0.000000  1
  O  O20  1  0.009929  0.227561  0.000000  1
  O  O21  1  0.819819  0.446045  0.000000  1
  F  F22  1  0.000087  0.999913  0.500000  1
