# generated using pymatgen
data_V6O5F19
_symmetry_space_group_name_H-M   'P 1'
_cell_length_a   5.32094978
_cell_length_b   5.46272552
_cell_length_c   14.73463898
_cell_angle_alpha   79.50621502
_cell_angle_beta   89.84436839
_cell_angle_gamma   89.42306864
_symmetry_Int_Tables_number   1
_chemical_formula_structural   V6O5F19
_chemical_formula_sum   'V6 O5 F19'
_cell_volume   421.10529122
_cell_formula_units_Z   1
loop_
 _symmetry_equiv_pos_site_id
 _symmetry_equiv_pos_as_xyz
  1  'x, y, z'
loop_
 _atom_site_type_symbol
 _atom_site_label
 _atom_site_symmetry_multiplicity
 _atom_site_fract_x
 _atom_site_fract_y
 _atom_site_fract_z
 _atom_site_occupancy
  V  V0  1  0.052749  0.982041  0.994666  1
  V  V1  1  0.454908  0.806655  0.329476  1
  V  V2  1  0.022867  0.723572  0.663635  1
  V  V3  1  0.554276  0.520061  0.005516  1
  V  V4  1  0.986407  0.322989  0.334893  1
  V  V5  1  0.480812  0.221535  0.664231  1
  O  O6  1  0.207319  0.968516  0.642149  1
  O  O7  1  0.284149  0.791221  0.977986  1
  O  O8  1  0.214735  0.637817  0.309963  1
  O  O9  1  0.293274  0.468182  0.643178  1
  O  O10  1  0.783848  0.707747  0.022002  1
  F  F11  1  0.722434  0.856964  0.691071  1
  F  F12  1  0.061657  0.958479  0.115963  1
  F  F13  1  0.429303  0.802714  0.449182  1
  F  F14  1  0.079677  0.602071  0.781628  1
  F  F15  1  0.598588  0.882165  0.219902  1
  F  F16  1  0.917760  0.689351  0.552696  1
  F  F17  1  0.559297  0.539432  0.884441  1
  F  F18  1  0.203876  0.284219  0.975773  1
  F  F19  1  0.692304  0.527718  0.359368  1
  F  F20  1  0.775939  0.354669  0.691950  1
  F  F21  1  0.403458  0.450074  0.114796  1
  F  F22  1  0.092139  0.299026  0.450097  1
  F  F23  1  0.417284  0.097727  0.781572  1
  F  F24  1  0.918226  0.389983  0.215720  1
  F  F25  1  0.584876  0.191299  0.552491  1
  F  F26  1  0.903403  0.049933  0.885292  1
  F  F27  1  0.294420  0.130050  0.307936  1
  F  F28  1  0.705608  0.213422  0.024597  1
  F  F29  1  0.804403  0.030368  0.357829  1
