# generated using pymatgen
data_Li4CrF6
_symmetry_space_group_name_H-M   'P 1'
_cell_length_a   8.78846406
_cell_length_b   8.78846406
_cell_length_c   10.46290569
_cell_angle_alpha   86.74383428
_cell_angle_beta   93.25616572
_cell_angle_gamma   117.49630427
_symmetry_Int_Tables_number   1
_chemical_formula_structural   Li4CrF6
_chemical_formula_sum   'Li24 Cr6 F36'
_cell_volume   715.25528416
_cell_formula_units_Z   6
loop_
 _symmetry_equiv_pos_site_id
 _symmetry_equiv_pos_as_xyz
  1  'x, y, z'
loop_
 _atom_site_type_symbol
 _atom_site_label
 _atom_site_symmetry_multiplicity
 _atom_site_fract_x
 _atom_site_fract_y
 _atom_site_fract_z
 _atom_site_occupancy
  Li  Li0  1  0.296782  0.970613  0.966013  1
  Li  Li1  1  0.344167  0.946828  0.208388  1
  Li  Li2  1  0.661391  0.998224  0.971880  1
  Li  Li3  1  0.011756  0.689826  0.472427  1
  Li  Li4  1  0.061114  0.662020  0.715431  1
  Li  Li5  1  0.532614  0.846164  0.733498  1
  Li  Li6  1  0.801855  0.801855  0.000000  1
  Li  Li7  1  0.137421  0.467333  0.232305  1
  Li  Li8  1  0.630487  0.674530  0.229787  1
  Li  Li9  1  0.821098  0.821098  0.500000  1
  Li  Li10  1  0.674530  0.630487  0.770213  1
  Li  Li11  1  0.998224  0.661391  0.028120  1
  Li  Li12  1  0.030735  0.294578  0.478786  1
  Li  Li13  1  0.489123  0.489123  0.500000  1
  Li  Li14  1  0.315440  0.357500  0.727987  1
  Li  Li15  1  0.203650  0.203650  0.000000  1
  Li  Li16  1  0.357500  0.315440  0.272013  1
  Li  Li17  1  0.846164  0.532614  0.266502  1
  Li  Li18  1  0.467333  0.137421  0.767695  1
  Li  Li19  1  0.946828  0.344167  0.791612  1
  Li  Li20  1  0.970613  0.296782  0.033987  1
  Li  Li21  1  0.294578  0.030735  0.521214  1
  Li  Li22  1  0.662020  0.061114  0.284569  1
  Li  Li23  1  0.689826  0.011756  0.527573  1
  Cr  Cr24  1  0.339038  0.648778  0.964809  1
  Cr  Cr25  1  0.335208  0.683754  0.460920  1
  Cr  Cr26  1  0.648778  0.339038  0.035191  1
  Cr  Cr27  1  0.683754  0.335208  0.539080  1
  Cr  Cr28  1  0.997968  0.000372  0.249016  1
  Cr  Cr29  1  0.000372  0.997968  0.750984  1
  F  F30  1  0.063368  0.906082  0.920926  1
  F  F31  1  0.074440  0.920909  0.416676  1
  F  F32  1  0.443135  0.930232  0.867316  1
  F  F33  1  0.436836  0.919174  0.367984  1
  F  F34  1  0.247697  0.769243  0.086940  1
  F  F35  1  0.222741  0.770309  0.584372  1
  F  F36  1  0.735518  0.885228  0.840114  1
  F  F37  1  0.097117  0.568668  0.874627  1
  F  F38  1  0.570742  0.755738  0.063307  1
  F  F39  1  0.756806  0.908404  0.326681  1
  F  F40  1  0.064336  0.566304  0.361047  1
  F  F41  1  0.601775  0.768524  0.576129  1
  F  F42  1  0.429500  0.587996  0.809754  1
  F  F43  1  0.885228  0.735518  0.159886  1
  F  F44  1  0.212281  0.396183  0.081063  1
  F  F45  1  0.423418  0.576575  0.332792  1
  F  F46  1  0.908404  0.756806  0.673319  1
  F  F47  1  0.261932  0.453219  0.560138  1
  F  F48  1  0.755738  0.570742  0.936693  1
  F  F49  1  0.091824  0.240785  0.829914  1
  F  F50  1  0.587996  0.429500  0.190246  1
  F  F51  1  0.768524  0.601775  0.423871  1
  F  F52  1  0.117707  0.267812  0.324960  1
  F  F53  1  0.576575  0.423418  0.667208  1
  F  F54  1  0.396183  0.212281  0.918937  1
  F  F55  1  0.930232  0.443135  0.132684  1
  F  F56  1  0.240785  0.091824  0.170086  1
  F  F57  1  0.453219  0.261932  0.439862  1
  F  F58  1  0.919174  0.436836  0.632016  1
  F  F59  1  0.267812  0.117707  0.675040  1
  F  F60  1  0.769243  0.247697  0.913060  1
  F  F61  1  0.770309  0.222741  0.415628  1
  F  F62  1  0.568668  0.097117  0.125373  1
  F  F63  1  0.566304  0.064336  0.638953  1
  F  F64  1  0.906082  0.063368  0.079074  1
  F  F65  1  0.920909  0.074440  0.583324  1
