# generated using pymatgen
data_Ti2Co12P7
_symmetry_space_group_name_H-M   'P 1'
_cell_length_a   8.86582801
_cell_length_b   8.86582801
_cell_length_c   3.50381566
_cell_angle_alpha   90.00000000
_cell_angle_beta   90.00000000
_cell_angle_gamma   120.00000000
_symmetry_Int_Tables_number   1
_chemical_formula_structural   Ti2Co12P7
_chemical_formula_sum   'Ti2 Co12 P7'
_cell_volume   238.51213777
_cell_formula_units_Z   1
loop_
 _symmetry_equiv_pos_site_id
 _symmetry_equiv_pos_as_xyz
  1  'x, y, z'
loop_
 _atom_site_type_symbol
 _atom_site_label
 _atom_site_symmetry_multiplicity
 _atom_site_fract_x
 _atom_site_fract_y
 _atom_site_fract_z
 _atom_site_occupancy
  Ti  Ti0  1  0.000000  0.000000  0.000000  1
  Ti  Ti1  1  0.333333  0.666667  0.500000  1
  Co  Co2  1  0.105563  0.397705  0.000000  1
  Co  Co3  1  0.602295  0.707859  0.000000  1
  Co  Co4  1  0.292141  0.894437  0.000000  1
  Co  Co5  1  0.053796  0.773537  0.500000  1
  Co  Co6  1  0.226463  0.280259  0.500000  1
  Co  Co7  1  0.719741  0.946204  0.500000  1
  Co  Co8  1  0.828429  0.612284  0.000000  1
  Co  Co9  1  0.387716  0.216145  0.000000  1
  Co  Co10  1  0.783855  0.171571  0.000000  1
  Co  Co11  1  0.891788  0.427267  0.500000  1
  Co  Co12  1  0.572733  0.464521  0.500000  1
  Co  Co13  1  0.535479  0.108212  0.500000  1
  P  P14  1  0.789068  0.744243  0.500000  1
  P  P15  1  0.255757  0.044825  0.500000  1
  P  P16  1  0.955175  0.210932  0.500000  1
  P  P17  1  0.666667  0.333333  0.000000  1
  P  P18  1  0.081020  0.625325  0.000000  1
  P  P19  1  0.374675  0.455695  0.000000  1
  P  P20  1  0.544305  0.918980  0.000000  1
