# generated using pymatgen
data_Li2MnVP2(HO5)2
_symmetry_space_group_name_H-M   'P 1'
_cell_length_a   5.21129141
_cell_length_b   7.40605573
_cell_length_c   10.70753693
_cell_angle_alpha   104.98632012
_cell_angle_beta   96.90796208
_cell_angle_gamma   107.98935712
_symmetry_Int_Tables_number   1
_chemical_formula_structural   Li2MnVP2(HO5)2
_chemical_formula_sum   'Li4 Mn2 V2 P4 H4 O20'
_cell_volume   370.56943090
_cell_formula_units_Z   2
loop_
 _symmetry_equiv_pos_site_id
 _symmetry_equiv_pos_as_xyz
  1  'x, y, z'
loop_
 _atom_site_type_symbol
 _atom_site_label
 _atom_site_symmetry_multiplicity
 _atom_site_fract_x
 _atom_site_fract_y
 _atom_site_fract_z
 _atom_site_occupancy
  Li  Li0  1  0.541671  0.619910  0.802732  1
  Li  Li1  1  0.943573  0.862701  0.699072  1
  Li  Li2  1  0.056427  0.137299  0.300928  1
  Li  Li3  1  0.458329  0.380090  0.197268  1
  Mn  Mn4  1  0.000000  0.500000  0.000000  1
  Mn  Mn5  1  0.500000  0.500000  0.500000  1
  V  V6  1  0.000000  0.000000  0.000000  1
  V  V7  1  0.500000  0.000000  0.500000  1
  P  P8  1  0.488299  0.048282  0.818176  1
  P  P9  1  0.995970  0.450819  0.685261  1
  P  P10  1  0.004030  0.549181  0.314739  1
  P  P11  1  0.511701  0.951718  0.181824  1
  H  H12  1  0.321833  0.304214  0.966395  1
  H  H13  1  0.174202  0.184147  0.532388  1
  H  H14  1  0.825798  0.815853  0.467612  1
  H  H15  1  0.678167  0.695786  0.033605  1
  O  O16  1  0.819780  0.701755  0.978101  1
  O  O17  1  0.599223  0.272824  0.892503  1
  O  O18  1  0.126025  0.476203  0.830777  1
  O  O19  1  0.236305  0.939905  0.868834  1
  O  O20  1  0.712299  0.950150  0.832067  1
  O  O21  1  0.788298  0.559904  0.680961  1
  O  O22  1  0.245894  0.545362  0.631614  1
  O  O23  1  0.367976  0.004798  0.667398  1
  O  O24  1  0.851031  0.223293  0.601464  1
  O  O25  1  0.307892  0.183026  0.474924  1
  O  O26  1  0.692108  0.816974  0.525076  1
  O  O27  1  0.148969  0.776707  0.398536  1
  O  O28  1  0.632024  0.995202  0.332602  1
  O  O29  1  0.754106  0.454638  0.368386  1
  O  O30  1  0.211702  0.440096  0.319039  1
  O  O31  1  0.287701  0.049850  0.167933  1
  O  O32  1  0.763695  0.060095  0.131166  1
  O  O33  1  0.873975  0.523797  0.169223  1
  O  O34  1  0.400777  0.727176  0.107497  1
  O  O35  1  0.180220  0.298245  0.021899  1
