# generated using pymatgen
data_VO2
_symmetry_space_group_name_H-M   'P 1'
_cell_length_a   5.36548761
_cell_length_b   5.41688561
_cell_length_c   7.23922790
_cell_angle_alpha   82.60265990
_cell_angle_beta   109.86287149
_cell_angle_gamma   117.01316633
_symmetry_Int_Tables_number   1
_chemical_formula_structural   VO2
_chemical_formula_sum   'V5 O10'
_cell_volume   176.21444223
_cell_formula_units_Z   5
loop_
 _symmetry_equiv_pos_site_id
 _symmetry_equiv_pos_as_xyz
  1  'x, y, z'
loop_
 _atom_site_type_symbol
 _atom_site_label
 _atom_site_symmetry_multiplicity
 _atom_site_fract_x
 _atom_site_fract_y
 _atom_site_fract_z
 _atom_site_occupancy
  V  V0  1  0.787327  0.998433  0.110656  1
  V  V1  1  0.590212  0.507815  0.720378  1
  V  V2  1  0.409788  0.492185  0.279622  1
  V  V3  1  0.000000  0.500000  0.500000  1
  V  V4  1  0.212673  0.001567  0.889344  1
  O  O5  1  0.191595  0.311094  0.714614  1
  O  O6  1  0.617611  0.211003  0.908356  1
  O  O7  1  0.220012  0.206810  0.104696  1
  O  O8  1  0.589434  0.317655  0.513515  1
  O  O9  1  0.941969  0.259908  0.307206  1
  O  O10  1  0.779988  0.793190  0.895304  1
  O  O11  1  0.808405  0.688906  0.285386  1
  O  O12  1  0.058031  0.740092  0.692794  1
  O  O13  1  0.382389  0.788997  0.091644  1
  O  O14  1  0.410566  0.682345  0.486485  1
