# generated using pymatgen
data_Co2OF3
_symmetry_space_group_name_H-M   'P 1'
_cell_length_a   7.11435866
_cell_length_b   7.11435866
_cell_length_c   6.81863450
_cell_angle_alpha   90.00000000
_cell_angle_beta   90.00000000
_cell_angle_gamma   128.65261285
_symmetry_Int_Tables_number   1
_chemical_formula_structural   Co2OF3
_chemical_formula_sum   'Co8 O4 F12'
_cell_volume   269.51976900
_cell_formula_units_Z   4
loop_
 _symmetry_equiv_pos_site_id
 _symmetry_equiv_pos_as_xyz
  1  'x, y, z'
loop_
 _atom_site_type_symbol
 _atom_site_label
 _atom_site_symmetry_multiplicity
 _atom_site_fract_x
 _atom_site_fract_y
 _atom_site_fract_z
 _atom_site_occupancy
  Co  Co0  1  0.874858  0.624965  0.750000  1
  Co  Co1  1  0.375035  0.125142  0.750000  1
  Co  Co2  1  0.874319  0.125681  0.750000  1
  Co  Co3  1  0.624329  0.375671  0.250000  1
  Co  Co4  1  0.125681  0.874319  0.250000  1
  Co  Co5  1  0.375671  0.624329  0.750000  1
  Co  Co6  1  0.624965  0.874858  0.250000  1
  Co  Co7  1  0.125142  0.375035  0.250000  1
  O  O8  1  0.530288  0.469712  0.750000  1
  O  O9  1  0.219987  0.780013  0.750000  1
  O  O10  1  0.469712  0.530288  0.250000  1
  O  O11  1  0.780013  0.219987  0.250000  1
  F  F12  1  0.026152  0.973848  0.750000  1
  F  F13  1  0.874823  0.625086  0.448748  1
  F  F14  1  0.374914  0.125177  0.448748  1
  F  F15  1  0.625086  0.874823  0.551252  1
  F  F16  1  0.125177  0.374914  0.551252  1
  F  F17  1  0.874823  0.625086  0.051252  1
  F  F18  1  0.374914  0.125177  0.051252  1
  F  F19  1  0.973848  0.026152  0.250000  1
  F  F20  1  0.723215  0.276785  0.750000  1
  F  F21  1  0.276785  0.723215  0.250000  1
  F  F22  1  0.625086  0.874823  0.948748  1
  F  F23  1  0.125177  0.374914  0.948748  1
