# generated using pymatgen
data_LiFeP3H8O13
_symmetry_space_group_name_H-M   'P 1'
_cell_length_a   7.31076896
_cell_length_b   7.79189890
_cell_length_c   10.12000279
_cell_angle_alpha   83.80407010
_cell_angle_beta   74.28428463
_cell_angle_gamma   76.81672008
_symmetry_Int_Tables_number   1
_chemical_formula_structural   LiFeP3H8O13
_chemical_formula_sum   'Li2 Fe2 P6 H16 O26'
_cell_volume   539.65275623
_cell_formula_units_Z   2
loop_
 _symmetry_equiv_pos_site_id
 _symmetry_equiv_pos_as_xyz
  1  'x, y, z'
loop_
 _atom_site_type_symbol
 _atom_site_label
 _atom_site_symmetry_multiplicity
 _atom_site_fract_x
 _atom_site_fract_y
 _atom_site_fract_z
 _atom_site_occupancy
  Li  Li0  1  0.803843  0.814298  0.763574  1
  Li  Li1  1  0.196157  0.185702  0.236426  1
  Fe  Fe2  1  0.000000  0.000000  0.000000  1
  Fe  Fe3  1  0.000000  0.500000  0.500000  1
  P  P4  1  0.330234  0.806748  0.744925  1
  P  P5  1  0.242865  0.804474  0.477243  1
  P  P6  1  0.592187  0.457318  0.728714  1
  P  P7  1  0.407813  0.542682  0.271286  1
  P  P8  1  0.757135  0.195526  0.522757  1
  P  P9  1  0.669766  0.193252  0.255075  1
  H  H10  1  0.367005  0.967163  0.960190  1
  H  H11  1  0.813977  0.820980  0.430132  1
  H  H12  1  0.311645  0.864856  0.101639  1
  H  H13  1  0.924502  0.739709  0.205401  1
  H  H14  1  0.690444  0.697951  0.398330  1
  H  H15  1  0.852788  0.653879  0.007563  1
  H  H16  1  0.652431  0.621336  0.005105  1
  H  H17  1  0.098094  0.646625  0.086886  1
  H  H18  1  0.901906  0.353375  0.913114  1
  H  H19  1  0.347569  0.378664  0.994895  1
  H  H20  1  0.147212  0.346121  0.992437  1
  H  H21  1  0.309556  0.302049  0.601670  1
  H  H22  1  0.075498  0.260291  0.794599  1
  H  H23  1  0.688355  0.135144  0.898361  1
  H  H24  1  0.186023  0.179020  0.569868  1
  H  H25  1  0.632995  0.032837  0.039810  1
  O  O26  1  0.474854  0.880142  0.788579  1
  O  O27  1  0.272239  0.979431  0.051650  1
  O  O28  1  0.191810  0.958492  0.385473  1
  O  O29  1  0.353100  0.858339  0.581102  1
  O  O30  1  0.117924  0.855366  0.818925  1
  O  O31  1  0.982437  0.744260  0.104626  1
  O  O32  1  0.824198  0.714416  0.383000  1
  O  O33  1  0.786637  0.612918  0.947512  1
  O  O34  1  0.756434  0.552820  0.669738  1
  O  O35  1  0.090750  0.703579  0.559838  1
  O  O36  1  0.426430  0.657806  0.391989  1
  O  O37  1  0.384854  0.592332  0.747813  1
  O  O38  1  0.411620  0.654025  0.141110  1
  O  O39  1  0.588380  0.345975  0.858890  1
  O  O40  1  0.615146  0.407668  0.252187  1
  O  O41  1  0.573570  0.342194  0.608011  1
  O  O42  1  0.909250  0.296421  0.440162  1
  O  O43  1  0.243566  0.447180  0.330262  1
  O  O44  1  0.213363  0.387082  0.052488  1
  O  O45  1  0.175802  0.285584  0.617000  1
  O  O46  1  0.017563  0.255740  0.895374  1
  O  O47  1  0.882076  0.144634  0.181075  1
  O  O48  1  0.646900  0.141661  0.418898  1
  O  O49  1  0.808190  0.041508  0.614527  1
  O  O50  1  0.727761  0.020569  0.948350  1
  O  O51  1  0.525146  0.119858  0.211421  1
