# generated using pymatgen
data_Li2Mn3(BO3)3
_symmetry_space_group_name_H-M   'P 1'
_cell_length_a   6.10867005
_cell_length_b   7.89436547
_cell_length_c   9.11189633
_cell_angle_alpha   110.30091815
_cell_angle_beta   107.94614560
_cell_angle_gamma   99.09130825
_symmetry_Int_Tables_number   1
_chemical_formula_structural   Li2Mn3(BO3)3
_chemical_formula_sum   'Li4 Mn6 B6 O18'
_cell_volume   374.38782444
_cell_formula_units_Z   2
loop_
 _symmetry_equiv_pos_site_id
 _symmetry_equiv_pos_as_xyz
  1  'x, y, z'
loop_
 _atom_site_type_symbol
 _atom_site_label
 _atom_site_symmetry_multiplicity
 _atom_site_fract_x
 _atom_site_fract_y
 _atom_site_fract_z
 _atom_site_occupancy
  Li  Li0  1  0.784464  0.453994  0.619492  1
  Li  Li1  1  0.564833  0.875227  0.055248  1
  Li  Li2  1  0.435167  0.124773  0.944751  1
  Li  Li3  1  0.215536  0.546006  0.380508  1
  Mn  Mn4  1  0.358454  0.112225  0.267408  1
  Mn  Mn5  1  0.946553  0.192523  0.412023  1
  Mn  Mn6  1  0.281779  0.533050  0.059796  1
  Mn  Mn7  1  0.718221  0.466950  0.940204  1
  Mn  Mn8  1  0.053447  0.807477  0.587977  1
  Mn  Mn9  1  0.641546  0.887775  0.732592  1
  B  B10  1  0.063051  0.794643  0.924238  1
  B  B11  1  0.289771  0.544320  0.730362  1
  B  B12  1  0.601955  0.854456  0.389145  1
  B  B13  1  0.398045  0.145544  0.610855  1
  B  B14  1  0.710229  0.455680  0.269638  1
  B  B15  1  0.936949  0.205357  0.075762  1
  O  O16  1  0.254849  0.957197  0.005411  1
  O  O17  1  0.900747  0.741557  0.757797  1
  O  O18  1  0.329910  0.659209  0.647547  1
  O  O19  1  0.627169  0.965927  0.299714  1
  O  O20  1  0.091828  0.391282  0.657534  1
  O  O21  1  0.423686  0.688483  0.317456  1
  O  O22  1  0.449012  0.602534  0.903459  1
  O  O23  1  0.766425  0.926296  0.557252  1
  O  O24  1  0.968359  0.326624  0.998590  1
  O  O25  1  0.031641  0.673376  0.001410  1
  O  O26  1  0.233575  0.073704  0.442748  1
  O  O27  1  0.550988  0.397466  0.096541  1
  O  O28  1  0.576314  0.311517  0.682544  1
  O  O29  1  0.908172  0.608718  0.342466  1
  O  O30  1  0.372831  0.034073  0.700286  1
  O  O31  1  0.670090  0.340791  0.352453  1
  O  O32  1  0.099253  0.258443  0.242203  1
  O  O33  1  0.745151  0.042803  0.994589  1
