# generated using pymatgen
data_Co2OF3
_symmetry_space_group_name_H-M   'P 1'
_cell_length_a   4.70944990
_cell_length_b   5.66789938
_cell_length_c   13.32128773
_cell_angle_alpha   78.98913415
_cell_angle_beta   87.90697399
_cell_angle_gamma   87.81308405
_symmetry_Int_Tables_number   1
_chemical_formula_structural   Co2OF3
_chemical_formula_sum   'Co10 O5 F15'
_cell_volume   348.62592566
_cell_formula_units_Z   5
loop_
 _symmetry_equiv_pos_site_id
 _symmetry_equiv_pos_as_xyz
  1  'x, y, z'
loop_
 _atom_site_type_symbol
 _atom_site_label
 _atom_site_symmetry_multiplicity
 _atom_site_fract_x
 _atom_site_fract_y
 _atom_site_fract_z
 _atom_site_occupancy
  Co  Co0  1  0.484388  0.511553  0.005879  1
  Co  Co1  1  0.507470  0.696318  0.397360  1
  Co  Co2  1  0.487842  0.300852  0.604241  1
  Co  Co3  1  0.499287  0.100371  0.199355  1
  Co  Co4  1  0.539840  0.888317  0.786386  1
  Co  Co5  1  0.999397  0.199100  0.400593  1
  Co  Co6  1  0.975630  0.413536  0.806245  1
  Co  Co7  1  0.996711  0.602295  0.201259  1
  Co  Co8  1  0.020238  0.787069  0.595214  1
  Co  Co9  1  0.001399  0.003083  0.998629  1
  O  O10  1  0.703052  0.967290  0.662616  1
  O  O11  1  0.701737  0.580774  0.862189  1
  O  O12  1  0.700005  0.781976  0.258345  1
  O  O13  1  0.295137  0.424316  0.139511  1
  O  O14  1  0.298446  0.619823  0.540630  1
  F  F15  1  0.799668  0.279130  0.260645  1
  F  F16  1  0.802787  0.086058  0.858519  1
  F  F17  1  0.800740  0.688374  0.059806  1
  F  F18  1  0.802513  0.880105  0.461741  1
  F  F19  1  0.810016  0.472061  0.663089  1
  F  F20  1  0.690404  0.185778  0.058337  1
  F  F21  1  0.693929  0.379107  0.462972  1
  F  F22  1  0.289693  0.214634  0.747816  1
  F  F23  1  0.308569  0.830153  0.929750  1
  F  F24  1  0.306999  0.018712  0.339870  1
  F  F25  1  0.197679  0.922710  0.138597  1
  F  F26  1  0.192840  0.324848  0.938115  1
  F  F27  1  0.193026  0.116801  0.541528  1
  F  F28  1  0.204820  0.707165  0.740132  1
  F  F29  1  0.195739  0.517692  0.340632  1
