# generated using pymatgen
data_Na2SnF6
_symmetry_space_group_name_H-M   'P 1'
_cell_length_a   5.15699204
_cell_length_b   5.15699204
_cell_length_c   10.28026277
_cell_angle_alpha   90.00000000
_cell_angle_beta   90.00000000
_cell_angle_gamma   90.00000000
_symmetry_Int_Tables_number   1
_chemical_formula_structural   Na2SnF6
_chemical_formula_sum   'Na4 Sn2 F12'
_cell_volume   273.39913599
_cell_formula_units_Z   2
loop_
 _symmetry_equiv_pos_site_id
 _symmetry_equiv_pos_as_xyz
  1  'x, y, z'
loop_
 _atom_site_type_symbol
 _atom_site_label
 _atom_site_symmetry_multiplicity
 _atom_site_fract_x
 _atom_site_fract_y
 _atom_site_fract_z
 _atom_site_occupancy
  Na  Na0  1  0.000000  0.000000  0.336507  1
  Na  Na1  1  0.500000  0.500000  0.836507  1
  Na  Na2  1  0.000000  0.000000  0.663493  1
  Na  Na3  1  0.500000  0.500000  0.163493  1
  Sn  Sn4  1  0.000000  0.000000  0.000000  1
  Sn  Sn5  1  0.500000  0.500000  0.500000  1
  F  F6  1  0.724406  0.724406  0.000000  1
  F  F7  1  0.775594  0.224406  0.500000  1
  F  F8  1  0.224406  0.775594  0.500000  1
  F  F9  1  0.275594  0.275594  0.000000  1
  F  F10  1  0.685463  0.685463  0.355537  1
  F  F11  1  0.314537  0.314537  0.355537  1
  F  F12  1  0.314537  0.314537  0.644463  1
  F  F13  1  0.185463  0.814537  0.144463  1
  F  F14  1  0.814537  0.185463  0.144463  1
  F  F15  1  0.814537  0.185463  0.855537  1
  F  F16  1  0.185463  0.814537  0.855537  1
  F  F17  1  0.685463  0.685463  0.644463  1
