# generated using pymatgen
data_Li3V4O11F
_symmetry_space_group_name_H-M   'P 1'
_cell_length_a   4.99064999
_cell_length_b   4.99140907
_cell_length_c   10.01822288
_cell_angle_alpha   90.50587341
_cell_angle_beta   97.97861076
_cell_angle_gamma   117.46732034
_symmetry_Int_Tables_number   1
_chemical_formula_structural   Li3V4O11F
_chemical_formula_sum   'Li3 V4 O11 F1'
_cell_volume   218.52768691
_cell_formula_units_Z   1
loop_
 _symmetry_equiv_pos_site_id
 _symmetry_equiv_pos_as_xyz
  1  'x, y, z'
loop_
 _atom_site_type_symbol
 _atom_site_label
 _atom_site_symmetry_multiplicity
 _atom_site_fract_x
 _atom_site_fract_y
 _atom_site_fract_z
 _atom_site_occupancy
  Li  Li0  1  0.456735  0.492374  0.982716  1
  Li  Li1  1  0.777223  0.897868  0.523968  1
  Li  Li2  1  0.126937  0.902425  0.975235  1
  V  V3  1  0.557640  0.115205  0.235445  1
  V  V4  1  0.751976  0.492132  0.722871  1
  V  V5  1  0.192783  0.467482  0.263762  1
  V  V6  1  0.427518  0.840229  0.776117  1
  O  O7  1  0.947310  0.201411  0.358161  1
  O  O8  1  0.892099  0.459607  0.152007  1
  O  O9  1  0.675970  0.134583  0.650967  1
  O  O10  1  0.272660  0.213877  0.144055  1
  O  O11  1  0.474681  0.169640  0.864133  1
  O  O12  1  0.733658  0.780911  0.867321  1
  O  O13  1  0.510575  0.837660  0.125358  1
  O  O14  1  0.449740  0.544468  0.639845  1
  O  O15  1  0.346836  0.849255  0.352635  1
  O  O16  1  0.134209  0.567980  0.862905  1
  O  O17  1  0.044360  0.759399  0.642278  1
  F  F18  1  0.582852  0.481083  0.359692  1
