# generated using pymatgen
data_LiMn2P2H9O13
_symmetry_space_group_name_H-M   'P 1'
_cell_length_a   5.62939670
_cell_length_b   9.06396204
_cell_length_c   10.16317756
_cell_angle_alpha   90.00000000
_cell_angle_beta   90.00000000
_cell_angle_gamma   90.00000000
_symmetry_Int_Tables_number   1
_chemical_formula_structural   LiMn2P2H9O13
_chemical_formula_sum   'Li2 Mn4 P4 H18 O26'
_cell_volume   518.57245590
_cell_formula_units_Z   2
loop_
 _symmetry_equiv_pos_site_id
 _symmetry_equiv_pos_as_xyz
  1  'x, y, z'
loop_
 _atom_site_type_symbol
 _atom_site_label
 _atom_site_symmetry_multiplicity
 _atom_site_fract_x
 _atom_site_fract_y
 _atom_site_fract_z
 _atom_site_occupancy
  Li  Li0  1  0.128012  0.000000  0.000000  1
  Li  Li1  1  0.128012  0.500000  0.500000  1
  Mn  Mn2  1  0.051522  0.151853  0.604200  1
  Mn  Mn3  1  0.051522  0.348147  0.104200  1
  Mn  Mn4  1  0.051522  0.651853  0.895800  1
  Mn  Mn5  1  0.051522  0.848147  0.395800  1
  P  P6  1  0.785077  0.149329  0.319645  1
  P  P7  1  0.785077  0.350671  0.819645  1
  P  P8  1  0.785077  0.649329  0.180355  1
  P  P9  1  0.785077  0.850671  0.680355  1
  H  H10  1  0.383556  0.000000  0.500000  1
  H  H11  1  0.359834  0.980302  0.751232  1
  H  H12  1  0.393180  0.149971  0.788683  1
  H  H13  1  0.438449  0.193429  0.131185  1
  H  H14  1  0.439947  0.242388  0.977755  1
  H  H15  1  0.439947  0.257612  0.477755  1
  H  H16  1  0.438449  0.306571  0.631185  1
  H  H17  1  0.393180  0.350029  0.288683  1
  H  H18  1  0.359834  0.519698  0.251232  1
  H  H19  1  0.383556  0.500000  0.000000  1
  H  H20  1  0.359834  0.480302  0.748768  1
  H  H21  1  0.393180  0.649971  0.711317  1
  H  H22  1  0.438449  0.693429  0.368815  1
  H  H23  1  0.439947  0.742388  0.522245  1
  H  H24  1  0.439947  0.757612  0.022245  1
  H  H25  1  0.438449  0.806571  0.868815  1
  H  H26  1  0.393180  0.850029  0.211317  1
  H  H27  1  0.359834  0.019698  0.248768  1
  O  O28  1  0.209333  0.000000  0.500000  1
  O  O29  1  0.794606  0.020586  0.655344  1
  O  O30  1  0.271837  0.069830  0.780940  1
  O  O31  1  0.522319  0.182869  0.281543  1
  O  O32  1  0.952610  0.179804  0.200038  1
  O  O33  1  0.854987  0.239125  0.441282  1
  O  O34  1  0.336026  0.205380  0.048840  1
  O  O35  1  0.336026  0.294620  0.548840  1
  O  O36  1  0.854987  0.260875  0.941282  1
  O  O37  1  0.952610  0.320196  0.700038  1
  O  O38  1  0.522319  0.317131  0.781543  1
  O  O39  1  0.271837  0.430170  0.280940  1
  O  O40  1  0.794606  0.479414  0.155344  1
  O  O41  1  0.209333  0.500000  0.000000  1
  O  O42  1  0.794606  0.520586  0.844656  1
  O  O43  1  0.271837  0.569830  0.719060  1
  O  O44  1  0.522319  0.682869  0.218457  1
  O  O45  1  0.952610  0.679804  0.299962  1
  O  O46  1  0.854987  0.739125  0.058718  1
  O  O47  1  0.336026  0.705380  0.451160  1
  O  O48  1  0.336026  0.794620  0.951160  1
  O  O49  1  0.854987  0.760875  0.558718  1
  O  O50  1  0.952610  0.820196  0.799962  1
  O  O51  1  0.522319  0.817131  0.718457  1
  O  O52  1  0.271837  0.930170  0.219060  1
  O  O53  1  0.794606  0.979414  0.344656  1
