# generated using pymatgen
data_Li7V(O2F)2
_symmetry_space_group_name_H-M   'P 1'
_cell_length_a   5.52666342
_cell_length_b   5.86610268
_cell_length_c   9.84367827
_cell_angle_alpha   105.56627137
_cell_angle_beta   89.62211467
_cell_angle_gamma   117.33390390
_symmetry_Int_Tables_number   1
_chemical_formula_structural   Li7V(O2F)2
_chemical_formula_sum   'Li14 V2 O8 F4'
_cell_volume   270.55276287
_cell_formula_units_Z   2
loop_
 _symmetry_equiv_pos_site_id
 _symmetry_equiv_pos_as_xyz
  1  'x, y, z'
loop_
 _atom_site_type_symbol
 _atom_site_label
 _atom_site_symmetry_multiplicity
 _atom_site_fract_x
 _atom_site_fract_y
 _atom_site_fract_z
 _atom_site_occupancy
  Li  Li0  1  0.032257  0.936951  0.764387  1
  Li  Li1  1  0.496066  0.390998  0.250531  1
  Li  Li2  1  0.543839  0.045851  0.616841  1
  Li  Li3  1  0.964560  0.453231  0.873510  1
  Li  Li4  1  0.031638  0.753916  0.546934  1
  Li  Li5  1  0.529171  0.310484  0.048809  1
  Li  Li6  1  0.978773  0.658165  0.318990  1
  Li  Li7  1  0.455827  0.705899  0.949182  1
  Li  Li8  1  0.957460  0.207064  0.451436  1
  Li  Li9  1  0.014855  0.526663  0.122984  1
  Li  Li10  1  0.494571  0.989153  0.383258  1
  Li  Li11  1  0.429251  0.530557  0.735062  1
  Li  Li12  1  0.028158  0.110217  0.252918  1
  Li  Li13  1  0.511770  0.840047  0.190085  1
  V  V14  1  0.028791  0.983235  0.009899  1
  V  V15  1  0.493101  0.525060  0.472947  1
  O  O16  1  0.296019  0.047782  0.195104  1
  O  O17  1  0.158585  0.778534  0.956509  1
  O  O18  1  0.688209  0.329351  0.449264  1
  O  O19  1  0.734088  0.660252  0.116300  1
  O  O20  1  0.247266  0.340303  0.898851  1
  O  O21  1  0.345058  0.710494  0.542784  1
  O  O22  1  0.219456  0.458267  0.305335  1
  O  O23  1  0.782402  0.872830  0.381223  1
  F  F24  1  0.226659  0.125673  0.607064  1
  F  F25  1  0.790537  0.579518  0.692377  1
  F  F26  1  0.816879  0.202787  0.060844  1
  F  F27  1  0.704756  0.926719  0.806571  1
