# generated using pymatgen
data_As3Rh
_symmetry_space_group_name_H-M   'P 1'
_cell_length_a   7.43359172
_cell_length_b   7.43359172
_cell_length_c   7.43359172
_cell_angle_alpha   109.47122063
_cell_angle_beta   109.47122063
_cell_angle_gamma   109.47122063
_symmetry_Int_Tables_number   1
_chemical_formula_structural   As3Rh
_chemical_formula_sum   'As12 Rh4'
_cell_volume   316.20899687
_cell_formula_units_Z   4
loop_
 _symmetry_equiv_pos_site_id
 _symmetry_equiv_pos_as_xyz
  1  'x, y, z'
loop_
 _atom_site_type_symbol
 _atom_site_label
 _atom_site_symmetry_multiplicity
 _atom_site_fract_x
 _atom_site_fract_y
 _atom_site_fract_z
 _atom_site_occupancy
  As  As0  1  0.505026  0.853452  0.651574  1
  As  As1  1  0.201877  0.853452  0.348426  1
  As  As2  1  0.798123  0.146548  0.651574  1
  As  As3  1  0.146548  0.348426  0.494974  1
  As  As4  1  0.494974  0.146548  0.348426  1
  As  As5  1  0.146548  0.651574  0.798123  1
  As  As6  1  0.348426  0.201877  0.853452  1
  As  As7  1  0.853452  0.651574  0.505026  1
  As  As8  1  0.651574  0.798123  0.146548  1
  As  As9  1  0.853452  0.348426  0.201877  1
  As  As10  1  0.651574  0.505026  0.853452  1
  As  As11  1  0.348426  0.494974  0.146548  1
  Rh  Rh12  1  0.500000  0.000000  0.000000  1
  Rh  Rh13  1  0.000000  0.000000  0.500000  1
  Rh  Rh14  1  1.000000  0.500000  0.000000  1
  Rh  Rh15  1  0.500000  0.500000  0.500000  1
