# generated using pymatgen
data_Mn6O5F7
_symmetry_space_group_name_H-M   'P 1'
_cell_length_a   4.71596611
_cell_length_b   5.75376223
_cell_length_c   15.63529124
_cell_angle_alpha   89.64399736
_cell_angle_beta   89.75950600
_cell_angle_gamma   86.83601346
_symmetry_Int_Tables_number   1
_chemical_formula_structural   Mn6O5F7
_chemical_formula_sum   'Mn12 O10 F14'
_cell_volume   423.59850827
_cell_formula_units_Z   2
loop_
 _symmetry_equiv_pos_site_id
 _symmetry_equiv_pos_as_xyz
  1  'x, y, z'
loop_
 _atom_site_type_symbol
 _atom_site_label
 _atom_site_symmetry_multiplicity
 _atom_site_fract_x
 _atom_site_fract_y
 _atom_site_fract_z
 _atom_site_occupancy
  Mn  Mn0  1  0.008691  0.847934  0.412780  1
  Mn  Mn1  1  0.960271  0.166202  0.243535  1
  Mn  Mn2  1  0.979328  0.824869  0.087997  1
  Mn  Mn3  1  0.967424  0.830840  0.748399  1
  Mn  Mn4  1  0.992623  0.146461  0.578089  1
  Mn  Mn5  1  0.987361  0.152852  0.909590  1
  Mn  Mn6  1  0.515916  0.681777  0.595698  1
  Mn  Mn7  1  0.494514  0.649297  0.919310  1
  Mn  Mn8  1  0.494498  0.638973  0.255117  1
  Mn  Mn9  1  0.504089  0.362939  0.087167  1
  Mn  Mn10  1  0.517033  0.349801  0.414126  1
  Mn  Mn11  1  0.511123  0.358855  0.752122  1
  O  O12  1  0.793339  0.891502  0.639079  1
  O  O13  1  0.760103  0.117914  0.140045  1
  O  O14  1  0.784255  0.109974  0.464866  1
  O  O15  1  0.766442  0.111677  0.801823  1
  O  O16  1  0.705858  0.604245  0.147582  1
  O  O17  1  0.716384  0.382757  0.307005  1
  O  O18  1  0.714312  0.603071  0.813725  1
  O  O19  1  0.281274  0.614878  0.026560  1
  O  O20  1  0.280733  0.616730  0.363217  1
  O  O21  1  0.279729  0.620311  0.696815  1
  F  F22  1  0.768229  0.880097  0.307884  1
  F  F23  1  0.762662  0.882944  0.970517  1
  F  F24  1  0.748104  0.619934  0.483704  1
  F  F25  1  0.756003  0.391918  0.640733  1
  F  F26  1  0.745011  0.387798  0.975712  1
  F  F27  1  0.237861  0.385414  0.192172  1
  F  F28  1  0.292596  0.374668  0.525054  1
  F  F29  1  0.267927  0.382853  0.866356  1
  F  F30  1  0.228597  0.884343  0.200476  1
  F  F31  1  0.250027  0.880766  0.517329  1
  F  F32  1  0.215412  0.121459  0.346628  1
  F  F33  1  0.237166  0.120240  0.024125  1
  F  F34  1  0.217952  0.869988  0.855366  1
  F  F35  1  0.257155  0.133718  0.689294  1
