# generated using pymatgen
data_LuAlB4
_symmetry_space_group_name_H-M   'P 1'
_cell_length_a   3.51211738
_cell_length_b   5.90125786
_cell_length_c   11.43137345
_cell_angle_alpha   90.00000000
_cell_angle_beta   90.00000000
_cell_angle_gamma   90.00000000
_symmetry_Int_Tables_number   1
_chemical_formula_structural   LuAlB4
_chemical_formula_sum   'Lu4 Al4 B16'
_cell_volume   236.92562066
_cell_formula_units_Z   4
loop_
 _symmetry_equiv_pos_site_id
 _symmetry_equiv_pos_as_xyz
  1  'x, y, z'
loop_
 _atom_site_type_symbol
 _atom_site_label
 _atom_site_symmetry_multiplicity
 _atom_site_fract_x
 _atom_site_fract_y
 _atom_site_fract_z
 _atom_site_occupancy
  Lu  Lu0  1  0.000000  0.370149  0.650099  1
  Lu  Lu1  1  0.000000  0.629851  0.349901  1
  Lu  Lu2  1  0.000000  0.870149  0.849901  1
  Lu  Lu3  1  0.000000  0.129851  0.150099  1
  Al  Al4  1  0.000000  0.362094  0.910278  1
  Al  Al5  1  0.000000  0.637906  0.089722  1
  Al  Al6  1  0.000000  0.862094  0.589722  1
  Al  Al7  1  0.000000  0.137906  0.410278  1
  B  B8  1  0.500000  0.025842  0.693371  1
  B  B9  1  0.500000  0.974158  0.306629  1
  B  B10  1  0.500000  0.525842  0.806629  1
  B  B11  1  0.500000  0.474158  0.193371  1
  B  B12  1  0.500000  0.114241  0.547424  1
  B  B13  1  0.500000  0.885759  0.452576  1
  B  B14  1  0.500000  0.614241  0.952576  1
  B  B15  1  0.500000  0.385759  0.047424  1
  B  B16  1  0.500000  0.291230  0.312577  1
  B  B17  1  0.500000  0.708770  0.687423  1
  B  B18  1  0.500000  0.791230  0.187423  1
  B  B19  1  0.500000  0.208770  0.812577  1
  B  B20  1  0.500000  0.367429  0.469405  1
  B  B21  1  0.500000  0.632571  0.530595  1
  B  B22  1  0.500000  0.867429  0.030595  1
  B  B23  1  0.500000  0.132571  0.969405  1
