# generated using pymatgen
data_Li4Ti3Fe3(SbO8)2
_symmetry_space_group_name_H-M   'P 1'
_cell_length_a   6.01294504
_cell_length_b   6.04717320
_cell_length_c   9.85745258
_cell_angle_alpha   90.60354006
_cell_angle_beta   90.49420716
_cell_angle_gamma   119.52588986
_symmetry_Int_Tables_number   1
_chemical_formula_structural   Li4Ti3Fe3(SbO8)2
_chemical_formula_sum   'Li4 Ti3 Fe3 Sb2 O16'
_cell_volume   311.82517145
_cell_formula_units_Z   1
loop_
 _symmetry_equiv_pos_site_id
 _symmetry_equiv_pos_as_xyz
  1  'x, y, z'
loop_
 _atom_site_type_symbol
 _atom_site_label
 _atom_site_symmetry_multiplicity
 _atom_site_fract_x
 _atom_site_fract_y
 _atom_site_fract_z
 _atom_site_occupancy
  Li  Li0  1  0.659754  0.324316  0.901351  1
  Li  Li1  1  0.998737  0.994993  0.987373  1
  Li  Li2  1  0.002066  0.005554  0.490632  1
  Li  Li3  1  0.329494  0.662301  0.404229  1
  Ti  Ti4  1  0.348425  0.180539  0.214986  1
  Ti  Ti5  1  0.832729  0.175882  0.217052  1
  Ti  Ti6  1  0.169728  0.340732  0.717418  1
  Fe  Fe7  1  0.825746  0.657324  0.208900  1
  Fe  Fe8  1  0.173578  0.834536  0.712350  1
  Fe  Fe9  1  0.658777  0.833498  0.713431  1
  Sb  Sb10  1  0.676151  0.345409  0.494142  1
  Sb  Sb11  1  0.335859  0.675620  0.986889  1
  O  O12  1  0.335134  0.171143  0.603389  1
  O  O13  1  0.521981  0.038215  0.335442  1
  O  O14  1  0.649700  0.298341  0.105486  1
  O  O15  1  0.011578  0.019775  0.300715  1
  O  O16  1  0.014537  0.015909  0.803063  1
  O  O17  1  0.851986  0.180659  0.599179  1
  O  O18  1  0.497770  0.461917  0.342106  1
  O  O19  1  0.961273  0.464786  0.339480  1
  O  O20  1  0.168848  0.339270  0.097821  1
  O  O21  1  0.854154  0.684010  0.589852  1
  O  O22  1  0.034050  0.510936  0.846228  1
  O  O23  1  0.465066  0.505327  0.851826  1
  O  O24  1  0.313488  0.640463  0.607188  1
  O  O25  1  0.172196  0.840372  0.094373  1
  O  O26  1  0.467095  0.957802  0.850121  1
  O  O27  1  0.669800  0.840371  0.092815  1
