# generated using pymatgen
data_Hf2Al3
_symmetry_space_group_name_H-M   'P 1'
_cell_length_a   8.39918697
_cell_length_b   7.44308864
_cell_length_c   5.51690286
_cell_angle_alpha   79.27055983
_cell_angle_beta   60.53718743
_cell_angle_gamma   40.19225274
_symmetry_Int_Tables_number   1
_chemical_formula_structural   Hf2Al3
_chemical_formula_sum   'Hf4 Al6'
_cell_volume   182.43408248
_cell_formula_units_Z   2
loop_
 _symmetry_equiv_pos_site_id
 _symmetry_equiv_pos_as_xyz
  1  'x, y, z'
loop_
 _atom_site_type_symbol
 _atom_site_label
 _atom_site_symmetry_multiplicity
 _atom_site_fract_x
 _atom_site_fract_y
 _atom_site_fract_z
 _atom_site_occupancy
  Hf  Hf0  1  0.137536  0.756514  0.231906  1
  Hf  Hf1  1  0.874043  0.231906  0.756514  1
  Hf  Hf2  1  0.018094  0.375957  0.112464  1
  Hf  Hf3  1  0.493486  0.112464  0.375957  1
  Al  Al4  1  0.624843  0.375157  0.375157  1
  Al  Al5  1  0.874843  0.625157  0.625157  1
  Al  Al6  1  0.543368  0.184934  0.821488  1
  Al  Al7  1  0.450210  0.821488  0.184934  1
  Al  Al8  1  0.428512  0.799790  0.706632  1
  Al  Al9  1  0.065066  0.706633  0.799790  1
