# generated using pymatgen
data_Ti2N2O
_symmetry_space_group_name_H-M   'P 1'
_cell_length_a   8.21568541
_cell_length_b   8.22729501
_cell_length_c   8.22797999
_cell_angle_alpha   109.51811950
_cell_angle_beta   109.42718063
_cell_angle_gamma   109.33969515
_symmetry_Int_Tables_number   1
_chemical_formula_structural   Ti2N2O
_chemical_formula_sum   'Ti16 N16 O8'
_cell_volume   428.80429883
_cell_formula_units_Z   8
loop_
 _symmetry_equiv_pos_site_id
 _symmetry_equiv_pos_as_xyz
  1  'x, y, z'
loop_
 _atom_site_type_symbol
 _atom_site_label
 _atom_site_symmetry_multiplicity
 _atom_site_fract_x
 _atom_site_fract_y
 _atom_site_fract_z
 _atom_site_occupancy
  Ti  Ti0  1  0.013515  0.011252  0.522151  1
  Ti  Ti1  1  0.236496  0.029886  0.284862  1
  Ti  Ti2  1  0.044030  0.294223  0.253485  1
  Ti  Ti3  1  0.458447  0.207976  0.749391  1
  Ti  Ti4  1  0.305301  0.758280  0.542994  1
  Ti  Ti5  1  0.785982  0.732151  0.034058  1
  Ti  Ti6  1  0.483147  0.496796  0.486986  1
  Ti  Ti7  1  0.509594  0.994092  0.995332  1
  Ti  Ti8  1  0.253824  0.538624  0.797764  1
  Ti  Ti9  1  0.001597  0.497940  0.988219  1
  Ti  Ti10  1  0.748421  0.449129  0.210104  1
  Ti  Ti11  1  0.717372  0.260674  0.460508  1
  Ti  Ti12  1  0.198452  0.252190  0.964540  1
  Ti  Ti13  1  0.952985  0.706152  0.745667  1
  Ti  Ti14  1  0.546035  0.796703  0.250446  1
  Ti  Ti15  1  0.753885  0.965771  0.701418  1
  N  N16  1  0.048892  0.777694  0.041839  1
  N  N17  1  0.224907  0.948447  0.486292  1
  N  N18  1  0.720817  0.461119  0.950842  1
  N  N19  1  0.265264  0.493325  0.538698  1
  N  N20  1  0.547073  0.008507  0.777454  1
  N  N21  1  0.735921  0.511287  0.457339  1
  N  N22  1  0.235645  0.275269  0.726929  1
  N  N23  1  0.772301  0.223065  0.232202  1
  N  N24  1  0.007184  0.955620  0.732481  1
  N  N25  1  0.275548  0.545528  0.054315  1
  N  N26  1  0.543410  0.769438  0.992779  1
  N  N27  1  0.275409  0.264102  0.225208  1
  N  N28  1  0.958988  0.449258  0.723913  1
  N  N29  1  0.774645  0.048910  0.509068  1
  N  N30  1  0.490441  0.724963  0.449914  1
  N  N31  1  0.948954  0.227163  0.959980  1
  O  O32  1  0.510255  0.272928  0.548951  1
  O  O33  1  0.723437  0.726123  0.774012  1
  O  O34  1  0.034754  0.547759  0.277027  1
  O  O35  1  0.461174  0.234739  0.009815  1
  O  O36  1  0.992700  0.044720  0.269219  1
  O  O37  1  0.225848  0.776920  0.773364  1
  O  O38  1  0.765984  0.727736  0.272317  1
  O  O39  1  0.451363  0.993542  0.228115  1
