# generated using pymatgen
data_Li3Mn4(BO3)4
_symmetry_space_group_name_H-M   'P 1'
_cell_length_a   7.88180990
_cell_length_b   7.93364447
_cell_length_c   8.27488434
_cell_angle_alpha   81.54997786
_cell_angle_beta   80.58360268
_cell_angle_gamma   83.63712443
_symmetry_Int_Tables_number   1
_chemical_formula_structural   Li3Mn4(BO3)4
_chemical_formula_sum   'Li6 Mn8 B8 O24'
_cell_volume   502.92622858
_cell_formula_units_Z   2
loop_
 _symmetry_equiv_pos_site_id
 _symmetry_equiv_pos_as_xyz
  1  'x, y, z'
loop_
 _atom_site_type_symbol
 _atom_site_label
 _atom_site_symmetry_multiplicity
 _atom_site_fract_x
 _atom_site_fract_y
 _atom_site_fract_z
 _atom_site_occupancy
  Li  Li0  1  0.311870  0.150166  0.220238  1
  Li  Li1  1  0.705087  0.365892  0.271303  1
  Li  Li2  1  0.186956  0.844383  0.274157  1
  Li  Li3  1  0.813044  0.155617  0.725843  1
  Li  Li4  1  0.294913  0.634108  0.728697  1
  Li  Li5  1  0.688130  0.849834  0.779762  1
  Mn  Mn6  1  0.180749  0.996578  0.576199  1
  Mn  Mn7  1  0.677060  0.987713  0.084622  1
  Mn  Mn8  1  0.174443  0.493563  0.079165  1
  Mn  Mn9  1  0.320780  0.490785  0.427515  1
  Mn  Mn10  1  0.679220  0.509215  0.572485  1
  Mn  Mn11  1  0.825557  0.506437  0.920835  1
  Mn  Mn12  1  0.322940  0.012287  0.915378  1
  Mn  Mn13  1  0.819251  0.003422  0.423801  1
  B  B14  1  0.004257  0.326141  0.405570  1
  B  B15  1  0.501446  0.167570  0.589044  1
  B  B16  1  0.510878  0.337346  0.912206  1
  B  B17  1  0.003559  0.828439  0.893850  1
  B  B18  1  0.996441  0.171561  0.106150  1
  B  B19  1  0.489122  0.662654  0.087794  1
  B  B20  1  0.498554  0.832430  0.410956  1
  B  B21  1  0.995743  0.673859  0.594430  1
  O  O22  1  0.131392  0.047740  0.121123  1
  O  O23  1  0.170298  0.341674  0.313350  1
  O  O24  1  0.481744  0.182816  0.013601  1
  O  O25  1  0.017884  0.330809  0.012668  1
  O  O26  1  0.336495  0.135817  0.668807  1
  O  O27  1  0.638333  0.050062  0.625596  1
  O  O28  1  0.125667  0.550681  0.613425  1
  O  O29  1  0.530588  0.316444  0.480820  1
  O  O30  1  0.022828  0.829739  0.490492  1
  O  O31  1  0.830989  0.146985  0.191822  1
  O  O32  1  0.321722  0.643938  0.181524  1
  O  O33  1  0.381550  0.464846  0.892487  1
  O  O34  1  0.618450  0.535154  0.107513  1
  O  O35  1  0.678278  0.356062  0.818476  1
  O  O36  1  0.169011  0.853015  0.808178  1
  O  O37  1  0.977172  0.170261  0.509508  1
  O  O38  1  0.469412  0.683556  0.519180  1
  O  O39  1  0.874333  0.449319  0.386575  1
  O  O40  1  0.361667  0.949938  0.374404  1
  O  O41  1  0.663505  0.864183  0.331193  1
  O  O42  1  0.982116  0.669191  0.987332  1
  O  O43  1  0.518256  0.817184  0.986399  1
  O  O44  1  0.829702  0.658326  0.686650  1
  O  O45  1  0.868608  0.952260  0.878877  1
