# generated using pymatgen
data_LiFePH2O5
_symmetry_space_group_name_H-M   'P 1'
_cell_length_a   5.15687912
_cell_length_b   10.02267256
_cell_length_c   16.99322984
_cell_angle_alpha   90.00000000
_cell_angle_beta   90.00000000
_cell_angle_gamma   90.00000000
_symmetry_Int_Tables_number   1
_chemical_formula_structural   LiFePH2O5
_chemical_formula_sum   'Li8 Fe8 P8 H16 O40'
_cell_volume   878.30716394
_cell_formula_units_Z   8
loop_
 _symmetry_equiv_pos_site_id
 _symmetry_equiv_pos_as_xyz
  1  'x, y, z'
loop_
 _atom_site_type_symbol
 _atom_site_label
 _atom_site_symmetry_multiplicity
 _atom_site_fract_x
 _atom_site_fract_y
 _atom_site_fract_z
 _atom_site_occupancy
  Li  Li0  1  0.474409  0.148535  0.694634  1
  Li  Li1  1  0.525591  0.148535  0.194634  1
  Li  Li2  1  0.106216  0.420543  0.945388  1
  Li  Li3  1  0.893784  0.420543  0.445388  1
  Li  Li4  1  0.525591  0.648535  0.305366  1
  Li  Li5  1  0.474409  0.648535  0.805366  1
  Li  Li6  1  0.106216  0.920543  0.554612  1
  Li  Li7  1  0.893784  0.920543  0.054612  1
  Fe  Fe8  1  0.474633  0.182071  0.502533  1
  Fe  Fe9  1  0.525367  0.182071  0.002533  1
  Fe  Fe10  1  0.903761  0.396020  0.251635  1
  Fe  Fe11  1  0.096239  0.396020  0.751635  1
  Fe  Fe12  1  0.474633  0.682071  0.997467  1
  Fe  Fe13  1  0.525367  0.682071  0.497467  1
  Fe  Fe14  1  0.096239  0.896020  0.748365  1
  Fe  Fe15  1  0.903761  0.896020  0.248365  1
  P  P16  1  0.007831  0.229173  0.094145  1
  P  P17  1  0.992169  0.229173  0.594145  1
  P  P18  1  0.407307  0.340929  0.343248  1
  P  P19  1  0.592693  0.340929  0.843248  1
  P  P20  1  0.007831  0.729173  0.405855  1
  P  P21  1  0.992169  0.729173  0.905855  1
  P  P22  1  0.592693  0.840929  0.656752  1
  P  P23  1  0.407307  0.840929  0.156752  1
  H  H24  1  0.067529  0.993703  0.378906  1
  H  H25  1  0.932471  0.993703  0.878906  1
  H  H26  1  0.610398  0.066000  0.376579  1
  H  H27  1  0.389602  0.066000  0.876579  1
  H  H28  1  0.181091  0.102042  0.315723  1
  H  H29  1  0.818909  0.102042  0.815723  1
  H  H30  1  0.708541  0.460146  0.059090  1
  H  H31  1  0.291459  0.460146  0.559090  1
  H  H32  1  0.067529  0.493703  0.121094  1
  H  H33  1  0.932471  0.493703  0.621094  1
  H  H34  1  0.389602  0.566000  0.623421  1
  H  H35  1  0.610398  0.566000  0.123421  1
  H  H36  1  0.818909  0.602042  0.684277  1
  H  H37  1  0.181091  0.602042  0.184277  1
  H  H38  1  0.708541  0.960146  0.440910  1
  H  H39  1  0.291459  0.960146  0.940910  1
  O  O40  1  0.566641  0.025376  0.427594  1
  O  O41  1  0.433359  0.025376  0.927594  1
  O  O42  1  0.034669  0.037736  0.327551  1
  O  O43  1  0.965331  0.037736  0.827551  1
  O  O44  1  0.864272  0.116868  0.047159  1
  O  O45  1  0.135728  0.116868  0.547159  1
  O  O46  1  0.300841  0.196454  0.101350  1
  O  O47  1  0.699159  0.196454  0.601350  1
  O  O48  1  0.575622  0.204219  0.801060  1
  O  O49  1  0.424378  0.204219  0.301060  1
  O  O50  1  0.882114  0.236427  0.177551  1
  O  O51  1  0.117886  0.236427  0.677551  1
  O  O52  1  0.463858  0.333061  0.926449  1
  O  O53  1  0.536142  0.333061  0.426449  1
  O  O54  1  0.970321  0.363370  0.049492  1
  O  O55  1  0.029679  0.363370  0.549492  1
  O  O56  1  0.117785  0.382106  0.351371  1
  O  O57  1  0.882215  0.382106  0.851371  1
  O  O58  1  0.555187  0.449631  0.294854  1
  O  O59  1  0.444813  0.449631  0.794854  1
  O  O60  1  0.433359  0.525376  0.572406  1
  O  O61  1  0.566641  0.525376  0.072406  1
  O  O62  1  0.965331  0.537736  0.672449  1
  O  O63  1  0.034669  0.537736  0.172449  1
  O  O64  1  0.135728  0.616868  0.952841  1
  O  O65  1  0.864272  0.616868  0.452841  1
  O  O66  1  0.699159  0.696454  0.898650  1
  O  O67  1  0.300841  0.696454  0.398650  1
  O  O68  1  0.424378  0.704219  0.198940  1
  O  O69  1  0.575622  0.704219  0.698940  1
  O  O70  1  0.117886  0.736427  0.822449  1
  O  O71  1  0.882114  0.736427  0.322449  1
  O  O72  1  0.463858  0.833061  0.573551  1
  O  O73  1  0.536142  0.833061  0.073551  1
  O  O74  1  0.970321  0.863370  0.450508  1
  O  O75  1  0.029679  0.863370  0.950508  1
  O  O76  1  0.882215  0.882106  0.648629  1
  O  O77  1  0.117785  0.882106  0.148629  1
  O  O78  1  0.444813  0.949631  0.705146  1
  O  O79  1  0.555187  0.949631  0.205146  1
