# generated using pymatgen
data_Na3VP2O9
_symmetry_space_group_name_H-M   'P 1'
_cell_length_a   6.31857243
_cell_length_b   6.47005310
_cell_length_c   9.76674839
_cell_angle_alpha   90.00000000
_cell_angle_beta   108.62880817
_cell_angle_gamma   90.00000000
_symmetry_Int_Tables_number   1
_chemical_formula_structural   Na3VP2O9
_chemical_formula_sum   'Na6 V2 P4 O18'
_cell_volume   378.36024179
_cell_formula_units_Z   2
loop_
 _symmetry_equiv_pos_site_id
 _symmetry_equiv_pos_as_xyz
  1  'x, y, z'
loop_
 _atom_site_type_symbol
 _atom_site_label
 _atom_site_symmetry_multiplicity
 _atom_site_fract_x
 _atom_site_fract_y
 _atom_site_fract_z
 _atom_site_occupancy
  Na  Na0  1  0.223435  0.492352  0.824951  1
  Na  Na1  1  0.776565  0.992352  0.175049  1
  Na  Na2  1  0.776565  0.507648  0.175049  1
  Na  Na3  1  0.223435  0.007648  0.824951  1
  Na  Na4  1  0.731531  0.750000  0.819754  1
  Na  Na5  1  0.268469  0.250000  0.180246  1
  V  V6  1  0.212083  0.750000  0.421849  1
  V  V7  1  0.787917  0.250000  0.578151  1
  P  P8  1  0.756525  0.750000  0.500241  1
  P  P9  1  0.243475  0.250000  0.499759  1
  P  P10  1  0.260290  0.750000  0.096998  1
  P  P11  1  0.739710  0.250000  0.903002  1
  O  O12  1  0.879065  0.750000  0.385449  1
  O  O13  1  0.120935  0.250000  0.614551  1
  O  O14  1  0.185312  0.441561  0.399283  1
  O  O15  1  0.814688  0.941561  0.600717  1
  O  O16  1  0.814688  0.558439  0.600717  1
  O  O17  1  0.185312  0.058439  0.399283  1
  O  O18  1  0.722208  0.250000  0.399884  1
  O  O19  1  0.277792  0.750000  0.600116  1
  O  O20  1  0.496215  0.250000  0.586630  1
  O  O21  1  0.503785  0.750000  0.413370  1
  O  O22  1  0.890461  0.250000  0.794946  1
  O  O23  1  0.109539  0.750000  0.205054  1
  O  O24  1  0.903077  0.250000  0.059725  1
  O  O25  1  0.096923  0.750000  0.940275  1
  O  O26  1  0.599144  0.448673  0.875338  1
  O  O27  1  0.400856  0.948673  0.124662  1
  O  O28  1  0.400856  0.551327  0.124662  1
  O  O29  1  0.599144  0.051327  0.875338  1
