# generated using pymatgen
data_La2Si4CN6
_symmetry_space_group_name_H-M   'P 1'
_cell_length_a   6.04106167
_cell_length_b   10.22881558
_cell_length_c   10.59125912
_cell_angle_alpha   90.00000000
_cell_angle_beta   90.00000000
_cell_angle_gamma   90.00000000
_symmetry_Int_Tables_number   1
_chemical_formula_structural   La2Si4CN6
_chemical_formula_sum   'La8 Si16 C4 N24'
_cell_volume   654.46467636
_cell_formula_units_Z   4
loop_
 _symmetry_equiv_pos_site_id
 _symmetry_equiv_pos_as_xyz
  1  'x, y, z'
loop_
 _atom_site_type_symbol
 _atom_site_label
 _atom_site_symmetry_multiplicity
 _atom_site_fract_x
 _atom_site_fract_y
 _atom_site_fract_z
 _atom_site_occupancy
  La  La0  1  0.750000  0.049097  0.395896  1
  La  La1  1  0.250000  0.450903  0.895896  1
  La  La2  1  0.750000  0.407325  0.439264  1
  La  La3  1  0.250000  0.092675  0.939264  1
  La  La4  1  0.750000  0.907325  0.060736  1
  La  La5  1  0.250000  0.592675  0.560736  1
  La  La6  1  0.750000  0.549097  0.104104  1
  La  La7  1  0.250000  0.950903  0.604104  1
  Si  Si8  1  0.750000  0.517630  0.738695  1
  Si  Si9  1  0.250000  0.982370  0.238695  1
  Si  Si10  1  0.750000  0.017630  0.761305  1
  Si  Si11  1  0.250000  0.482370  0.261305  1
  Si  Si12  1  0.750000  0.298151  0.924530  1
  Si  Si13  1  0.250000  0.201849  0.424530  1
  Si  Si14  1  0.750000  0.798151  0.575470  1
  Si  Si15  1  0.250000  0.701849  0.075470  1
  Si  Si16  1  0.503388  0.727401  0.329897  1
  Si  Si17  1  0.496612  0.772599  0.829897  1
  Si  Si18  1  0.996612  0.227401  0.170103  1
  Si  Si19  1  0.003388  0.272599  0.670103  1
  Si  Si20  1  0.496612  0.272599  0.670103  1
  Si  Si21  1  0.503388  0.227401  0.170103  1
  Si  Si22  1  0.003388  0.772599  0.829897  1
  Si  Si23  1  0.996612  0.727401  0.329897  1
  C  C24  1  0.750000  0.205149  0.764123  1
  C  C25  1  0.250000  0.294851  0.264123  1
  C  C26  1  0.750000  0.705149  0.735877  1
  C  C27  1  0.250000  0.794851  0.235877  1
  N  N28  1  0.750000  0.966000  0.607308  1
  N  N29  1  0.250000  0.534000  0.107308  1
  N  N30  1  0.009150  0.720305  0.986472  1
  N  N31  1  0.990850  0.779695  0.486472  1
  N  N32  1  0.490850  0.220305  0.513528  1
  N  N33  1  0.509150  0.279695  0.013528  1
  N  N34  1  0.990850  0.279695  0.013528  1
  N  N35  1  0.009150  0.220305  0.513528  1
  N  N36  1  0.509150  0.779695  0.486472  1
  N  N37  1  0.980159  0.445776  0.664771  1
  N  N38  1  0.519841  0.445776  0.664771  1
  N  N39  1  0.480159  0.054224  0.164771  1
  N  N40  1  0.980159  0.945776  0.835229  1
  N  N41  1  0.019841  0.554224  0.335229  1
  N  N42  1  0.250000  0.231221  0.746983  1
  N  N43  1  0.750000  0.268779  0.246983  1
  N  N44  1  0.250000  0.731221  0.753017  1
  N  N45  1  0.750000  0.768779  0.253017  1
  N  N46  1  0.490850  0.720305  0.986472  1
  N  N47  1  0.480159  0.554224  0.335229  1
  N  N48  1  0.519841  0.945776  0.835229  1
  N  N49  1  0.019841  0.054224  0.164771  1
  N  N50  1  0.750000  0.466000  0.892692  1
  N  N51  1  0.250000  0.034000  0.392692  1
