# generated using pymatgen
data_K2ZnO2
_symmetry_space_group_name_H-M   'P 1'
_cell_length_a   6.67608082
_cell_length_b   6.67608082
_cell_length_c   6.67608082
_cell_angle_alpha   131.34620484
_cell_angle_beta   125.69696947
_cell_angle_gamma   75.87101932
_symmetry_Int_Tables_number   1
_chemical_formula_structural   K2ZnO2
_chemical_formula_sum   'K4 Zn2 O4'
_cell_volume   176.46884081
_cell_formula_units_Z   2
loop_
 _symmetry_equiv_pos_site_id
 _symmetry_equiv_pos_as_xyz
  1  'x, y, z'
loop_
 _atom_site_type_symbol
 _atom_site_label
 _atom_site_symmetry_multiplicity
 _atom_site_fract_x
 _atom_site_fract_y
 _atom_site_fract_z
 _atom_site_occupancy
  K  K0  1  0.211349  0.347698  0.863651  1
  K  K1  1  0.788651  0.652302  0.136349  1
  K  K2  1  0.484047  0.847698  0.636349  1
  K  K3  1  0.515953  0.152302  0.363651  1
  Zn  Zn4  1  0.000000  0.750000  0.750000  1
  Zn  Zn5  1  0.000000  0.250000  0.250000  1
  O  O6  1  0.718938  0.404548  0.314390  1
  O  O7  1  0.281062  0.595452  0.685610  1
  O  O8  1  0.909842  0.095452  0.814390  1
  O  O9  1  0.090158  0.904548  0.185610  1
