# generated using pymatgen
data_LiVCrP2(O4F)2
_symmetry_space_group_name_H-M   'P 1'
_cell_length_a   5.16152115
_cell_length_b   5.34133227
_cell_length_c   7.32677812
_cell_angle_alpha   109.59474722
_cell_angle_beta   106.04766577
_cell_angle_gamma   97.96970204
_symmetry_Int_Tables_number   1
_chemical_formula_structural   LiVCrP2(O4F)2
_chemical_formula_sum   'Li1 V1 Cr1 P2 O8 F2'
_cell_volume   176.80973519
_cell_formula_units_Z   1
loop_
 _symmetry_equiv_pos_site_id
 _symmetry_equiv_pos_as_xyz
  1  'x, y, z'
loop_
 _atom_site_type_symbol
 _atom_site_label
 _atom_site_symmetry_multiplicity
 _atom_site_fract_x
 _atom_site_fract_y
 _atom_site_fract_z
 _atom_site_occupancy
  Li  Li0  1  0.743224  0.385905  0.182620  1
  V  V1  1  0.004649  0.003347  0.993746  1
  Cr  Cr2  1  0.001108  0.998432  0.502437  1
  P  P3  1  0.678449  0.360670  0.756774  1
  P  P4  1  0.318107  0.644050  0.242501  1
  O  O5  1  0.357053  0.220913  0.910253  1
  O  O6  1  0.751770  0.221910  0.599673  1
  O  O7  1  0.694692  0.659270  0.662930  1
  O  O8  1  0.116868  0.669208  0.123314  1
  O  O9  1  0.848091  0.312370  0.900532  1
  O  O10  1  0.315147  0.343182  0.336414  1
  O  O11  1  0.261012  0.791298  0.393585  1
  O  O12  1  0.638757  0.766971  0.085908  1
  F  F13  1  0.881771  0.064597  0.261216  1
  F  F14  1  0.118429  0.942402  0.737040  1
