# generated using pymatgen
data_MnFe2(PO4)3
_symmetry_space_group_name_H-M   'P 1'
_cell_length_a   8.57055601
_cell_length_b   8.57055601
_cell_length_c   8.57055601
_cell_angle_alpha   60.70533132
_cell_angle_beta   60.70533132
_cell_angle_gamma   60.70533132
_symmetry_Int_Tables_number   1
_chemical_formula_structural   MnFe2(PO4)3
_chemical_formula_sum   'Mn2 Fe4 P6 O24'
_cell_volume   452.24214287
_cell_formula_units_Z   2
loop_
 _symmetry_equiv_pos_site_id
 _symmetry_equiv_pos_as_xyz
  1  'x, y, z'
loop_
 _atom_site_type_symbol
 _atom_site_label
 _atom_site_symmetry_multiplicity
 _atom_site_fract_x
 _atom_site_fract_y
 _atom_site_fract_z
 _atom_site_occupancy
  Mn  Mn0  1  0.000000  0.000000  0.000000  1
  Mn  Mn1  1  0.500000  0.500000  0.500000  1
  Fe  Fe2  1  0.854572  0.854572  0.854572  1
  Fe  Fe3  1  0.645428  0.645428  0.645428  1
  Fe  Fe4  1  0.354572  0.354572  0.354572  1
  Fe  Fe5  1  0.145428  0.145428  0.145428  1
  P  P6  1  0.545400  0.954600  0.250000  1
  P  P7  1  0.250000  0.545400  0.954600  1
  P  P8  1  0.954600  0.250000  0.545400  1
  P  P9  1  0.045400  0.750000  0.454600  1
  P  P10  1  0.750000  0.454600  0.045400  1
  P  P11  1  0.454600  0.045400  0.750000  1
  O  O12  1  0.495385  0.890314  0.681852  1
  O  O13  1  0.890314  0.681852  0.495385  1
  O  O14  1  0.742617  0.940454  0.089987  1
  O  O15  1  0.681852  0.495385  0.890314  1
  O  O16  1  0.390314  0.995385  0.181852  1
  O  O17  1  0.559546  0.757383  0.410013  1
  O  O18  1  0.089987  0.742617  0.940454  1
  O  O19  1  0.410013  0.559546  0.757383  1
  O  O20  1  0.004615  0.818148  0.609686  1
  O  O21  1  0.757383  0.410013  0.559546  1
  O  O22  1  0.059546  0.910013  0.257383  1
  O  O23  1  0.818148  0.609686  0.004615  1
  O  O24  1  0.181852  0.390314  0.995385  1
  O  O25  1  0.940454  0.089987  0.742617  1
  O  O26  1  0.242617  0.589987  0.440454  1
  O  O27  1  0.995385  0.181852  0.390314  1
  O  O28  1  0.589987  0.440454  0.242617  1
  O  O29  1  0.910013  0.257383  0.059546  1
  O  O30  1  0.440454  0.242617  0.589987  1
  O  O31  1  0.609686  0.004615  0.818148  1
  O  O32  1  0.318148  0.504615  0.109686  1
  O  O33  1  0.257383  0.059546  0.910013  1
  O  O34  1  0.109686  0.318148  0.504615  1
  O  O35  1  0.504615  0.109686  0.318148  1
