# generated using pymatgen
data_NaNd(SO4)2
_symmetry_space_group_name_H-M   'P 1'
_cell_length_a   6.41585170
_cell_length_b   6.73367652
_cell_length_c   7.06954395
_cell_angle_alpha   86.57659903
_cell_angle_beta   88.81022307
_cell_angle_gamma   78.80426559
_symmetry_Int_Tables_number   1
_chemical_formula_structural   NaNd(SO4)2
_chemical_formula_sum   'Na2 Nd2 S4 O16'
_cell_volume   299.06032112
_cell_formula_units_Z   2
loop_
 _symmetry_equiv_pos_site_id
 _symmetry_equiv_pos_as_xyz
  1  'x, y, z'
loop_
 _atom_site_type_symbol
 _atom_site_label
 _atom_site_symmetry_multiplicity
 _atom_site_fract_x
 _atom_site_fract_y
 _atom_site_fract_z
 _atom_site_occupancy
  Na  Na0  1  0.088399  0.723124  0.654983  1
  Na  Na1  1  0.911601  0.276876  0.345017  1
  Nd  Nd2  1  0.621734  0.228683  0.824727  1
  Nd  Nd3  1  0.378266  0.771317  0.175273  1
  S  S4  1  0.123553  0.204695  0.838990  1
  S  S5  1  0.876447  0.795305  0.161010  1
  S  S6  1  0.604515  0.705364  0.679067  1
  S  S7  1  0.395485  0.294636  0.320933  1
  O  O8  1  0.770839  0.526230  0.638287  1
  O  O9  1  0.229161  0.473770  0.361713  1
  O  O10  1  0.442244  0.754664  0.527550  1
  O  O11  1  0.557756  0.245336  0.472450  1
  O  O12  1  0.229825  0.375639  0.778823  1
  O  O13  1  0.770175  0.624361  0.221177  1
  O  O14  1  0.014329  0.131184  0.681386  1
  O  O15  1  0.985671  0.868816  0.318614  1
  O  O16  1  0.495561  0.642092  0.857803  1
  O  O17  1  0.504439  0.357908  0.142197  1
  O  O18  1  0.705600  0.881040  0.705325  1
  O  O19  1  0.294400  0.118960  0.294675  1
  O  O20  1  0.303764  0.041404  0.911190  1
  O  O21  1  0.696236  0.958596  0.088810  1
  O  O22  1  0.958764  0.260574  0.988244  1
  O  O23  1  0.041236  0.739426  0.011756  1
