# generated using pymatgen
data_LaOF
_symmetry_space_group_name_H-M   'P 1'
_cell_length_a   7.18136326
_cell_length_b   7.18136326
_cell_length_c   7.18136326
_cell_angle_alpha   32.85413865
_cell_angle_beta   32.85413865
_cell_angle_gamma   32.85413865
_symmetry_Int_Tables_number   1
_chemical_formula_structural   LaOF
_chemical_formula_sum   'La2 O2 F2'
_cell_volume   96.97711797
_cell_formula_units_Z   2
loop_
 _symmetry_equiv_pos_site_id
 _symmetry_equiv_pos_as_xyz
  1  'x, y, z'
loop_
 _atom_site_type_symbol
 _atom_site_label
 _atom_site_symmetry_multiplicity
 _atom_site_fract_x
 _atom_site_fract_y
 _atom_site_fract_z
 _atom_site_occupancy
  La  La0  1  0.258729  0.258729  0.258729  1
  La  La1  1  0.741271  0.741271  0.741271  1
  O  O2  1  0.376670  0.376670  0.376670  1
  O  O3  1  0.623330  0.623330  0.623330  1
  F  F4  1  0.871242  0.871242  0.871242  1
  F  F5  1  0.128758  0.128758  0.128758  1
