# generated using pymatgen
data_KPS3
_symmetry_space_group_name_H-M   'P 1'
_cell_length_a   7.26022539
_cell_length_b   7.26022539
_cell_length_c   7.26022539
_cell_angle_alpha   122.30000778
_cell_angle_beta   106.44714473
_cell_angle_gamma   100.51639199
_symmetry_Int_Tables_number   1
_chemical_formula_structural   KPS3
_chemical_formula_sum   'K2 P2 S6'
_cell_volume   282.71793619
_cell_formula_units_Z   2
loop_
 _symmetry_equiv_pos_site_id
 _symmetry_equiv_pos_as_xyz
  1  'x, y, z'
loop_
 _atom_site_type_symbol
 _atom_site_label
 _atom_site_symmetry_multiplicity
 _atom_site_fract_x
 _atom_site_fract_y
 _atom_site_fract_z
 _atom_site_occupancy
  K  K0  1  0.748913  1.000000  0.748913  1
  K  K1  1  0.251087  1.000000  0.251087  1
  P  P2  1  0.660081  0.660081  0.000000  1
  P  P3  1  0.339919  0.339919  0.000000  1
  S  S4  1  0.770025  0.527696  0.757671  1
  S  S5  1  0.229975  0.987646  0.757671  1
  S  S6  1  0.680352  0.500000  0.180352  1
  S  S7  1  0.319648  0.500000  0.819648  1
  S  S8  1  0.229975  0.472304  0.242329  1
  S  S9  1  0.770025  0.012354  0.242329  1
