# generated using pymatgen
data_Fe10O9F11
_symmetry_space_group_name_H-M   'P 1'
_cell_length_a   4.76085470
_cell_length_b   15.42073141
_cell_length_c   4.77491657
_cell_angle_alpha   90.00000000
_cell_angle_beta   92.99103246
_cell_angle_gamma   90.00000000
_symmetry_Int_Tables_number   1
_chemical_formula_structural   Fe10O9F11
_chemical_formula_sum   'Fe10 O9 F11'
_cell_volume   350.07705839
_cell_formula_units_Z   1
loop_
 _symmetry_equiv_pos_site_id
 _symmetry_equiv_pos_as_xyz
  1  'x, y, z'
loop_
 _atom_site_type_symbol
 _atom_site_label
 _atom_site_symmetry_multiplicity
 _atom_site_fract_x
 _atom_site_fract_y
 _atom_site_fract_z
 _atom_site_occupancy
  Fe  Fe0  1  0.006024  0.403360  0.005919  1
  Fe  Fe1  1  0.006024  0.596640  0.005919  1
  Fe  Fe2  1  0.967706  0.802910  0.988236  1
  Fe  Fe3  1  0.958242  0.000000  0.010209  1
  Fe  Fe4  1  0.967706  0.197090  0.988236  1
  Fe  Fe5  1  0.502138  0.500000  0.501825  1
  Fe  Fe6  1  0.548675  0.896690  0.493597  1
  Fe  Fe7  1  0.507873  0.688541  0.515668  1
  Fe  Fe8  1  0.548675  0.103310  0.493597  1
  Fe  Fe9  1  0.507873  0.311459  0.515668  1
  O  O10  1  0.806576  0.898554  0.189166  1
  O  O11  1  0.806576  0.101446  0.189166  1
  O  O12  1  0.704686  0.402505  0.706818  1
  O  O13  1  0.704686  0.597495  0.706818  1
  O  O14  1  0.688958  0.796555  0.687194  1
  O  O15  1  0.692628  0.000000  0.686333  1
  O  O16  1  0.688958  0.203445  0.687194  1
  O  O17  1  0.303743  0.399959  0.306483  1
  O  O18  1  0.303743  0.600041  0.306483  1
  F  F19  1  0.802193  0.500000  0.206584  1
  F  F20  1  0.803688  0.703422  0.195837  1
  F  F21  1  0.803688  0.296578  0.195837  1
  F  F22  1  0.295215  0.798442  0.293504  1
  F  F23  1  0.303707  0.000000  0.297462  1
  F  F24  1  0.295215  0.201558  0.293504  1
  F  F25  1  0.206522  0.500000  0.803119  1
  F  F26  1  0.191586  0.900053  0.805782  1
  F  F27  1  0.192556  0.704904  0.809029  1
  F  F28  1  0.192556  0.295096  0.809029  1
  F  F29  1  0.191586  0.099947  0.805782  1
