# generated using pymatgen
data_LiSi6BiO14
_symmetry_space_group_name_H-M   'P 1'
_cell_length_a   13.14930414
_cell_length_b   13.14930414
_cell_length_c   13.14930414
_cell_angle_alpha   146.13628098
_cell_angle_beta   107.23526849
_cell_angle_gamma   82.72329540
_symmetry_Int_Tables_number   1
_chemical_formula_structural   LiSi6BiO14
_chemical_formula_sum   'Li4 Si24 Bi4 O56'
_cell_volume   1179.15896883
_cell_formula_units_Z   4
loop_
 _symmetry_equiv_pos_site_id
 _symmetry_equiv_pos_as_xyz
  1  'x, y, z'
loop_
 _atom_site_type_symbol
 _atom_site_label
 _atom_site_symmetry_multiplicity
 _atom_site_fract_x
 _atom_site_fract_y
 _atom_site_fract_z
 _atom_site_occupancy
  Li  Li0  1  0.750000  0.750000  0.000000  1
  Li  Li1  1  0.250000  0.250000  0.000000  1
  Li  Li2  1  0.000000  0.500000  0.500000  1
  Li  Li3  1  0.500000  0.000000  0.500000  1
  Si  Si4  1  0.132419  0.824290  0.956709  1
  Si  Si5  1  0.367581  0.324290  0.691871  1
  Si  Si6  1  0.666246  0.260899  0.927145  1
  Si  Si7  1  0.277887  0.092758  0.667589  1
  Si  Si8  1  0.222113  0.889702  0.814871  1
  Si  Si9  1  0.925169  0.592758  0.814871  1
  Si  Si10  1  0.574831  0.389702  0.667589  1
  Si  Si11  1  0.166246  0.239101  0.405347  1
  Si  Si12  1  0.026318  0.793886  0.524039  1
  Si  Si13  1  0.769847  0.293886  0.767568  1
  Si  Si14  1  0.730153  0.497721  0.524039  1
  Si  Si15  1  0.473682  0.997721  0.767568  1
  Si  Si16  1  0.269847  0.502279  0.475961  1
  Si  Si17  1  0.973682  0.206114  0.475961  1
  Si  Si18  1  0.230153  0.706114  0.232432  1
  Si  Si19  1  0.526318  0.002279  0.232432  1
  Si  Si20  1  0.833754  0.760899  0.594653  1
  Si  Si21  1  0.777887  0.110298  0.185129  1
  Si  Si22  1  0.425169  0.610298  0.332411  1
  Si  Si23  1  0.722113  0.907242  0.332411  1
  Si  Si24  1  0.074831  0.407242  0.185129  1
  Si  Si25  1  0.333754  0.739101  0.072855  1
  Si  Si26  1  0.632419  0.675710  0.308129  1
  Si  Si27  1  0.867581  0.175710  0.043291  1
  Bi  Bi28  1  0.034495  0.250000  0.784495  1
  Bi  Bi29  1  0.534495  0.750000  0.784495  1
  Bi  Bi30  1  0.465505  0.250000  0.215505  1
  Bi  Bi31  1  0.965505  0.750000  0.215505  1
  O  O32  1  0.141462  0.813824  0.826870  1
  O  O33  1  0.013046  0.685408  0.826870  1
  O  O34  1  0.229472  0.745160  0.974632  1
  O  O35  1  0.708446  0.899441  0.981032  1
  O  O36  1  0.081591  0.272586  0.981032  1
  O  O37  1  0.363679  0.535867  0.899546  1
  O  O38  1  0.208446  0.227414  0.809005  1
  O  O39  1  0.581591  0.600559  0.809005  1
  O  O40  1  0.188273  0.407649  0.467881  1
  O  O41  1  0.060231  0.279608  0.467881  1
  O  O42  1  0.015775  0.074914  0.460482  1
  O  O43  1  0.385569  0.444708  0.460482  1
  O  O44  1  0.358538  0.185408  0.672362  1
  O  O45  1  0.486954  0.313824  0.672362  1
  O  O46  1  0.270528  0.245160  0.515688  1
  O  O47  1  0.885569  0.425086  0.940861  1
  O  O48  1  0.515775  0.055292  0.940861  1
  O  O49  1  0.357367  0.046288  0.742988  1
  O  O50  1  0.142633  0.885621  0.688921  1
  O  O51  1  0.803300  0.546288  0.688921  1
  O  O52  1  0.696700  0.385621  0.742988  1
  O  O53  1  0.560231  0.092351  0.780623  1
  O  O54  1  0.688273  0.220392  0.780623  1
  O  O55  1  0.295640  0.731723  0.690862  1
  O  O56  1  0.959139  0.395222  0.690862  1
  O  O57  1  0.204360  0.895222  0.436083  1
  O  O58  1  0.540861  0.231723  0.436083  1
  O  O59  1  0.136321  0.035867  0.172188  1
  O  O60  1  0.863679  0.964133  0.827812  1
  O  O61  1  0.459139  0.768277  0.563917  1
  O  O62  1  0.704360  0.268277  0.309138  1
  O  O63  1  0.040861  0.604778  0.309138  1
  O  O64  1  0.795640  0.104778  0.563917  1
  O  O65  1  0.439769  0.907649  0.219377  1
  O  O66  1  0.311727  0.779608  0.219377  1
  O  O67  1  0.857367  0.114379  0.311079  1
  O  O68  1  0.303300  0.614379  0.257012  1
  O  O69  1  0.196700  0.453712  0.311079  1
  O  O70  1  0.642633  0.953712  0.257012  1
  O  O71  1  0.114431  0.574914  0.059139  1
  O  O72  1  0.484225  0.944708  0.059139  1
  O  O73  1  0.729472  0.754840  0.484312  1
  O  O74  1  0.513046  0.686176  0.327638  1
  O  O75  1  0.641462  0.814592  0.327638  1
  O  O76  1  0.984225  0.925086  0.539518  1
  O  O77  1  0.614431  0.555292  0.539518  1
  O  O78  1  0.811727  0.592351  0.532119  1
  O  O79  1  0.939769  0.720392  0.532119  1
  O  O80  1  0.418409  0.399441  0.190995  1
  O  O81  1  0.791554  0.772586  0.190995  1
  O  O82  1  0.636321  0.464133  0.100454  1
  O  O83  1  0.291554  0.100559  0.018968  1
  O  O84  1  0.918409  0.727414  0.018968  1
  O  O85  1  0.770528  0.254840  0.025368  1
  O  O86  1  0.858538  0.186176  0.173130  1
  O  O87  1  0.986954  0.314592  0.173130  1
