# generated using pymatgen
data_Li3MnV(P2O7)2
_symmetry_space_group_name_H-M   'P 1'
_cell_length_a   5.05058314
_cell_length_b   7.09237606
_cell_length_c   8.36808126
_cell_angle_alpha   90.82938898
_cell_angle_beta   89.79960212
_cell_angle_gamma   109.12413247
_symmetry_Int_Tables_number   1
_chemical_formula_structural   Li3MnV(P2O7)2
_chemical_formula_sum   'Li3 Mn1 V1 P4 O14'
_cell_volume   283.17716738
_cell_formula_units_Z   1
loop_
 _symmetry_equiv_pos_site_id
 _symmetry_equiv_pos_as_xyz
  1  'x, y, z'
loop_
 _atom_site_type_symbol
 _atom_site_label
 _atom_site_symmetry_multiplicity
 _atom_site_fract_x
 _atom_site_fract_y
 _atom_site_fract_z
 _atom_site_occupancy
  Li  Li0  1  0.177366  0.659514  0.148824  1
  Li  Li1  1  0.273053  0.096214  0.838817  1
  Li  Li2  1  0.818729  0.344665  0.643383  1
  Mn  Mn3  1  0.802405  0.269406  0.016558  1
  V  V4  1  0.215362  0.724980  0.495321  1
  P  P5  1  0.392448  0.524932  0.814148  1
  P  P6  1  0.222891  0.080373  0.218152  1
  P  P7  1  0.792249  0.912544  0.703087  1
  P  P8  1  0.605294  0.478026  0.321192  1
  O  O9  1  0.073380  0.879549  0.664974  1
  O  O10  1  0.168499  0.881686  0.305404  1
  O  O11  1  0.205800  0.504483  0.960078  1
  O  O12  1  0.224990  0.521286  0.658864  1
  O  O13  1  0.384243  0.584926  0.328197  1
  O  O14  1  0.605317  0.907866  0.561029  1
  O  O15  1  0.628478  0.743565  0.830240  1
  O  O16  1  0.436508  0.241890  0.339499  1
  O  O17  1  0.377471  0.074237  0.059666  1
  O  O18  1  0.542846  0.368660  0.804504  1
  O  O19  1  0.761227  0.509283  0.162428  1
  O  O20  1  0.804381  0.524584  0.466239  1
  O  O21  1  0.869448  0.111013  0.797788  1
  O  O22  1  0.962438  0.136837  0.195916  1
