# generated using pymatgen
data_Fe10O9F11
_symmetry_space_group_name_H-M   'P 1'
_cell_length_a   4.74708724
_cell_length_b   15.56703365
_cell_length_c   4.76514156
_cell_angle_alpha   90.00000000
_cell_angle_beta   91.93367945
_cell_angle_gamma   90.00000000
_symmetry_Int_Tables_number   1
_chemical_formula_structural   Fe10O9F11
_chemical_formula_sum   'Fe10 O9 F11'
_cell_volume   351.93422729
_cell_formula_units_Z   1
loop_
 _symmetry_equiv_pos_site_id
 _symmetry_equiv_pos_as_xyz
  1  'x, y, z'
loop_
 _atom_site_type_symbol
 _atom_site_label
 _atom_site_symmetry_multiplicity
 _atom_site_fract_x
 _atom_site_fract_y
 _atom_site_fract_z
 _atom_site_occupancy
  Fe  Fe0  1  0.009834  0.000000  0.009465  1
  Fe  Fe1  1  0.973026  0.206366  0.986987  1
  Fe  Fe2  1  0.957612  0.400320  0.011174  1
  Fe  Fe3  1  0.957612  0.599680  0.011174  1
  Fe  Fe4  1  0.973026  0.793634  0.986987  1
  Fe  Fe5  1  0.509973  0.094309  0.514101  1
  Fe  Fe6  1  0.540871  0.500000  0.506624  1
  Fe  Fe7  1  0.544932  0.297981  0.498855  1
  Fe  Fe8  1  0.544932  0.702019  0.498855  1
  Fe  Fe9  1  0.509973  0.905691  0.514101  1
  O  O10  1  0.804656  0.300558  0.194672  1
  O  O11  1  0.801901  0.500000  0.196575  1
  O  O12  1  0.804656  0.699442  0.194672  1
  O  O13  1  0.707403  0.000000  0.710054  1
  O  O14  1  0.686193  0.194829  0.684585  1
  O  O15  1  0.693378  0.399045  0.691994  1
  O  O16  1  0.693378  0.600955  0.691994  1
  O  O17  1  0.686193  0.805171  0.684585  1
  O  O18  1  0.303064  0.000000  0.306781  1
  F  F19  1  0.805017  0.098097  0.197984  1
  F  F20  1  0.805017  0.901903  0.197984  1
  F  F21  1  0.297826  0.196147  0.294947  1
  F  F22  1  0.303073  0.399051  0.300030  1
  F  F23  1  0.303073  0.600949  0.300030  1
  F  F24  1  0.297826  0.803853  0.294947  1
  F  F25  1  0.195158  0.099677  0.809633  1
  F  F26  1  0.192873  0.500000  0.807908  1
  F  F27  1  0.201182  0.301349  0.796335  1
  F  F28  1  0.195158  0.900323  0.809633  1
  F  F29  1  0.201182  0.698651  0.796335  1
