# generated using pymatgen
data_LiV4OF11
_symmetry_space_group_name_H-M   'P 1'
_cell_length_a   5.56832654
_cell_length_b   5.27439974
_cell_length_c   7.49783336
_cell_angle_alpha   90.00000000
_cell_angle_beta   93.76755930
_cell_angle_gamma   90.00000000
_symmetry_Int_Tables_number   1
_chemical_formula_structural   LiV4OF11
_chemical_formula_sum   'Li1 V4 O1 F11'
_cell_volume   219.73231010
_cell_formula_units_Z   1
loop_
 _symmetry_equiv_pos_site_id
 _symmetry_equiv_pos_as_xyz
  1  'x, y, z'
loop_
 _atom_site_type_symbol
 _atom_site_label
 _atom_site_symmetry_multiplicity
 _atom_site_fract_x
 _atom_site_fract_y
 _atom_site_fract_z
 _atom_site_occupancy
  Li  Li0  1  0.500000  0.017177  0.000000  1
  V  V1  1  0.000031  0.000810  0.746437  1
  V  V2  1  0.999969  0.000810  0.253563  1
  V  V3  1  0.498870  0.491994  0.239955  1
  V  V4  1  0.501130  0.491994  0.760045  1
  O  O5  1  0.500000  0.410850  0.000000  1
  F  F6  1  0.000000  0.883636  0.500000  1
  F  F7  1  0.683795  0.824553  0.185478  1
  F  F8  1  0.316205  0.824553  0.814522  1
  F  F9  1  0.194372  0.706826  0.194035  1
  F  F10  1  0.805628  0.706826  0.805965  1
  F  F11  1  0.500000  0.592118  0.500000  1
  F  F12  1  0.808817  0.299108  0.304919  1
  F  F13  1  0.191183  0.299108  0.695081  1
  F  F14  1  0.309121  0.182498  0.297514  1
  F  F15  1  0.690879  0.182498  0.702486  1
  F  F16  1  0.000000  0.109970  0.000000  1
