# generated using pymatgen
data_Mn12O5F19
_symmetry_space_group_name_H-M   'P 1'
_cell_length_a   4.89529907
_cell_length_b   5.85148820
_cell_length_c   15.96797700
_cell_angle_alpha   90.53419671
_cell_angle_beta   90.17606954
_cell_angle_gamma   92.28664550
_symmetry_Int_Tables_number   1
_chemical_formula_structural   Mn12O5F19
_chemical_formula_sum   'Mn12 O5 F19'
_cell_volume   457.01246561
_cell_formula_units_Z   1
loop_
 _symmetry_equiv_pos_site_id
 _symmetry_equiv_pos_as_xyz
  1  'x, y, z'
loop_
 _atom_site_type_symbol
 _atom_site_label
 _atom_site_symmetry_multiplicity
 _atom_site_fract_x
 _atom_site_fract_y
 _atom_site_fract_z
 _atom_site_occupancy
  Mn  Mn0  1  0.024650  0.806214  0.573412  1
  Mn  Mn1  1  0.989158  0.144678  0.750107  1
  Mn  Mn2  1  0.970905  0.837843  0.915317  1
  Mn  Mn3  1  0.017040  0.854360  0.250035  1
  Mn  Mn4  1  0.012881  0.176032  0.413600  1
  Mn  Mn5  1  0.010605  0.169422  0.093140  1
  Mn  Mn6  1  0.484173  0.638373  0.416456  1
  Mn  Mn7  1  0.508016  0.668229  0.075534  1
  Mn  Mn8  1  0.509751  0.680675  0.754502  1
  Mn  Mn9  1  0.519123  0.352128  0.917269  1
  Mn  Mn10  1  0.494062  0.347129  0.582607  1
  Mn  Mn11  1  0.472554  0.341850  0.252372  1
  O  O12  1  0.223047  0.126706  0.199848  1
  O  O13  1  0.297305  0.592410  0.521860  1
  O  O14  1  0.282357  0.394649  0.357278  1
  O  O15  1  0.717707  0.620310  0.967375  1
  O  O16  1  0.786843  0.890572  0.812650  1
  F  F17  1  0.235761  0.893498  0.691041  1
  F  F18  1  0.231875  0.889244  0.363008  1
  F  F19  1  0.200962  0.876928  0.022011  1
  F  F20  1  0.239063  0.108950  0.869176  1
  F  F21  1  0.233192  0.100983  0.526805  1
  F  F22  1  0.262756  0.602407  0.860662  1
  F  F23  1  0.265919  0.389833  0.697605  1
  F  F24  1  0.266360  0.625740  0.185054  1
  F  F25  1  0.274906  0.380665  0.025677  1
  F  F26  1  0.727442  0.382106  0.804250  1
  F  F27  1  0.740654  0.610333  0.642771  1
  F  F28  1  0.752816  0.386676  0.476364  1
  F  F29  1  0.706241  0.382978  0.146772  1
  F  F30  1  0.717941  0.616969  0.305513  1
  F  F31  1  0.760020  0.874326  0.465400  1
  F  F32  1  0.762127  0.113072  0.634337  1
  F  F33  1  0.767453  0.128598  0.982878  1
  F  F34  1  0.771561  0.883261  0.140961  1
  F  F35  1  0.762776  0.111851  0.306354  1
