# generated using pymatgen
data_Li4Ti3Fe3(NiO8)2
_symmetry_space_group_name_H-M   'P 1'
_cell_length_a   5.91582131
_cell_length_b   5.91582131
_cell_length_c   9.65407981
_cell_angle_alpha   89.54716106
_cell_angle_beta   90.45283894
_cell_angle_gamma   119.95008519
_symmetry_Int_Tables_number   1
_chemical_formula_structural   Li4Ti3Fe3(NiO8)2
_chemical_formula_sum   'Li4 Ti3 Fe3 Ni2 O16'
_cell_volume   292.73303521
_cell_formula_units_Z   1
loop_
 _symmetry_equiv_pos_site_id
 _symmetry_equiv_pos_as_xyz
  1  'x, y, z'
loop_
 _atom_site_type_symbol
 _atom_site_label
 _atom_site_symmetry_multiplicity
 _atom_site_fract_x
 _atom_site_fract_y
 _atom_site_fract_z
 _atom_site_occupancy
  Li  Li0  1  0.669607  0.330393  0.109811  1
  Li  Li1  1  0.995747  0.004253  0.002143  1
  Li  Li2  1  0.995300  0.004700  0.501083  1
  Li  Li3  1  0.335523  0.664477  0.607115  1
  Ti  Ti4  1  0.833456  0.660319  0.784815  1
  Ti  Ti5  1  0.339681  0.166544  0.784815  1
  Ti  Ti6  1  0.170906  0.829094  0.284532  1
  Fe  Fe7  1  0.831979  0.168021  0.785643  1
  Fe  Fe8  1  0.662462  0.830021  0.285833  1
  Fe  Fe9  1  0.169979  0.337538  0.285833  1
  Ni  Ni10  1  0.665547  0.334453  0.510298  1
  Ni  Ni11  1  0.334427  0.665573  0.010540  1
  O  O12  1  0.834947  0.680896  0.395258  1
  O  O13  1  0.519209  0.480791  0.667181  1
  O  O14  1  0.658808  0.341192  0.899486  1
  O  O15  1  0.005308  0.994692  0.685454  1
  O  O16  1  0.006208  0.993792  0.185618  1
  O  O17  1  0.319104  0.165053  0.395258  1
  O  O18  1  0.962768  0.478624  0.667205  1
  O  O19  1  0.521376  0.037232  0.667205  1
  O  O20  1  0.161096  0.838904  0.896181  1
  O  O21  1  0.838372  0.161628  0.391751  1
  O  O22  1  0.486151  0.960872  0.166928  1
  O  O23  1  0.039128  0.513849  0.166928  1
  O  O24  1  0.325241  0.674759  0.400755  1
  O  O25  1  0.680295  0.843369  0.892985  1
  O  O26  1  0.481971  0.518029  0.168700  1
  O  O27  1  0.156631  0.319705  0.892985  1
