# generated using pymatgen
data_K2HfF6
_symmetry_space_group_name_H-M   'P 1'
_cell_length_a   6.57556256
_cell_length_b   6.57556256
_cell_length_c   8.84126801
_cell_angle_alpha   90.00000000
_cell_angle_beta   90.00000000
_cell_angle_gamma   90.00000000
_symmetry_Int_Tables_number   1
_chemical_formula_structural   K2HfF6
_chemical_formula_sum   'K4 Hf2 F12'
_cell_volume   382.27894939
_cell_formula_units_Z   2
loop_
 _symmetry_equiv_pos_site_id
 _symmetry_equiv_pos_as_xyz
  1  'x, y, z'
loop_
 _atom_site_type_symbol
 _atom_site_label
 _atom_site_symmetry_multiplicity
 _atom_site_fract_x
 _atom_site_fract_y
 _atom_site_fract_z
 _atom_site_occupancy
  K  K0  1  0.000000  0.500000  0.250000  1
  K  K1  1  0.500000  0.000000  0.250000  1
  K  K2  1  0.500000  0.000000  0.750000  1
  K  K3  1  0.000000  0.500000  0.750000  1
  Hf  Hf4  1  0.000000  0.000000  0.000000  1
  Hf  Hf5  1  0.500000  0.500000  0.500000  1
  F  F6  1  0.397257  0.211890  0.500000  1
  F  F7  1  0.602743  0.788110  0.500000  1
  F  F8  1  0.711890  0.897257  0.000000  1
  F  F9  1  0.211890  0.602743  0.500000  1
  F  F10  1  0.788110  0.397257  0.500000  1
  F  F11  1  0.102743  0.711890  0.000000  1
  F  F12  1  0.000000  0.000000  0.226688  1
  F  F13  1  0.500000  0.500000  0.273312  1
  F  F14  1  0.000000  0.000000  0.773312  1
  F  F15  1  0.500000  0.500000  0.726688  1
  F  F16  1  0.288110  0.102743  0.000000  1
  F  F17  1  0.897257  0.288110  0.000000  1
