# generated using pymatgen
data_GdNiB4
_symmetry_space_group_name_H-M   'P 1'
_cell_length_a   6.84981681
_cell_length_b   6.84981681
_cell_length_c   6.84981681
_cell_angle_alpha   112.88794578
_cell_angle_beta   112.88794578
_cell_angle_gamma   102.83474054
_symmetry_Int_Tables_number   1
_chemical_formula_structural   GdNiB4
_chemical_formula_sum   'Gd4 Ni4 B16'
_cell_volume   244.95907332
_cell_formula_units_Z   4
loop_
 _symmetry_equiv_pos_site_id
 _symmetry_equiv_pos_as_xyz
  1  'x, y, z'
loop_
 _atom_site_type_symbol
 _atom_site_label
 _atom_site_symmetry_multiplicity
 _atom_site_fract_x
 _atom_site_fract_y
 _atom_site_fract_z
 _atom_site_occupancy
  Gd  Gd0  1  0.203401  0.203401  0.000000  1
  Gd  Gd1  1  0.796599  0.796599  0.000000  1
  Gd  Gd2  1  0.750000  0.250000  0.500000  1
  Gd  Gd3  1  0.250000  0.750000  0.500000  1
  Ni  Ni4  1  0.500000  0.271456  0.771456  1
  Ni  Ni5  1  0.500000  0.728544  0.228544  1
  Ni  Ni6  1  0.728544  0.500000  0.228544  1
  Ni  Ni7  1  0.271456  0.500000  0.771456  1
  B  B8  1  0.111637  0.275611  0.387248  1
  B  B9  1  0.888363  0.724389  0.612752  1
  B  B10  1  0.888363  0.275611  0.163975  1
  B  B11  1  0.111637  0.724389  0.836025  1
  B  B12  1  0.724389  0.888363  0.612752  1
  B  B13  1  0.275611  0.111637  0.387248  1
  B  B14  1  0.724389  0.111637  0.836025  1
  B  B15  1  0.275611  0.888363  0.163975  1
  B  B16  1  0.418073  0.418073  0.531254  1
  B  B17  1  0.886819  0.886819  0.468746  1
  B  B18  1  0.581927  0.113181  1.000000  1
  B  B19  1  0.113181  0.581927  0.000000  1
  B  B20  1  0.581927  0.581927  0.468746  1
  B  B21  1  0.113181  0.113181  0.531254  1
  B  B22  1  0.886819  0.418073  1.000000  1
  B  B23  1  0.418073  0.886819  0.000000  1
