# generated using pymatgen
data_Li3CrNi3O8
_symmetry_space_group_name_H-M   'P 1'
_cell_length_a   5.83594523
_cell_length_b   5.83594523
_cell_length_c   5.84957621
_cell_angle_alpha   60.50939826
_cell_angle_beta   119.49060174
_cell_angle_gamma   120.82023723
_symmetry_Int_Tables_number   1
_chemical_formula_structural   Li3CrNi3O8
_chemical_formula_sum   'Li3 Cr1 Ni3 O8'
_cell_volume   141.03551785
_cell_formula_units_Z   1
loop_
 _symmetry_equiv_pos_site_id
 _symmetry_equiv_pos_as_xyz
  1  'x, y, z'
loop_
 _atom_site_type_symbol
 _atom_site_label
 _atom_site_symmetry_multiplicity
 _atom_site_fract_x
 _atom_site_fract_y
 _atom_site_fract_z
 _atom_site_occupancy
  Li  Li0  1  1.000000  0.500000  0.500000  1
  Li  Li1  1  0.500000  1.000000  0.500000  1
  Li  Li2  1  0.500000  0.500000  0.500000  1
  Cr  Cr3  1  0.000000  0.000000  0.000000  1
  Ni  Ni4  1  0.500000  0.500000  0.000000  1
  Ni  Ni5  1  0.500000  0.000000  0.000000  1
  Ni  Ni6  1  1.000000  0.500000  0.000000  1
  O  O7  1  0.275001  0.724999  0.800697  1
  O  O8  1  0.260384  0.260891  0.778422  1
  O  O9  1  0.768441  0.231559  0.778117  1
  O  O10  1  0.739109  0.739616  0.778422  1
  O  O11  1  0.260891  0.260384  0.221578  1
  O  O12  1  0.231559  0.768441  0.221883  1
  O  O13  1  0.739616  0.739109  0.221578  1
  O  O14  1  0.724999  0.275001  0.199303  1
