# generated using pymatgen
data_Li2Cu(Si2O5)2
_symmetry_space_group_name_H-M   'P 1'
_cell_length_a   10.78186130
_cell_length_b   7.77876406
_cell_length_c   10.93994876
_cell_angle_alpha   90.00000000
_cell_angle_beta   111.56516655
_cell_angle_gamma   90.00000000
_symmetry_Int_Tables_number   1
_chemical_formula_structural   Li2Cu(Si2O5)2
_chemical_formula_sum   'Li8 Cu4 Si16 O40'
_cell_volume   853.30174010
_cell_formula_units_Z   4
loop_
 _symmetry_equiv_pos_site_id
 _symmetry_equiv_pos_as_xyz
  1  'x, y, z'
loop_
 _atom_site_type_symbol
 _atom_site_label
 _atom_site_symmetry_multiplicity
 _atom_site_fract_x
 _atom_site_fract_y
 _atom_site_fract_z
 _atom_site_occupancy
  Li  Li0  1  0.618299  0.250000  0.902403  1
  Li  Li1  1  0.919883  0.250000  0.007492  1
  Li  Li2  1  0.125577  0.250000  0.628398  1
  Li  Li3  1  0.476316  0.250000  0.566898  1
  Li  Li4  1  0.523684  0.750000  0.433102  1
  Li  Li5  1  0.874423  0.750000  0.371602  1
  Li  Li6  1  0.080117  0.750000  0.992508  1
  Li  Li7  1  0.381701  0.750000  0.097597  1
  Cu  Cu8  1  0.723343  0.999904  0.783052  1
  Cu  Cu9  1  0.723343  0.500096  0.783052  1
  Cu  Cu10  1  0.276657  0.499904  0.216948  1
  Cu  Cu11  1  0.276657  0.000096  0.216948  1
  Si  Si12  1  0.263155  0.054132  0.923368  1
  Si  Si13  1  0.263155  0.445868  0.923368  1
  Si  Si14  1  0.417470  0.951185  0.750045  1
  Si  Si15  1  0.417470  0.548815  0.750045  1
  Si  Si16  1  0.003917  0.562433  0.746218  1
  Si  Si17  1  0.003917  0.937567  0.746218  1
  Si  Si18  1  0.227036  0.956814  0.472625  1
  Si  Si19  1  0.227036  0.543186  0.472625  1
  Si  Si20  1  0.772964  0.043186  0.527375  1
  Si  Si21  1  0.772964  0.456814  0.527375  1
  Si  Si22  1  0.996083  0.062433  0.253782  1
  Si  Si23  1  0.996083  0.437567  0.253782  1
  Si  Si24  1  0.582530  0.048815  0.249955  1
  Si  Si25  1  0.582530  0.451185  0.249955  1
  Si  Si26  1  0.736845  0.554132  0.076632  1
  Si  Si27  1  0.736845  0.945868  0.076632  1
  O  O28  1  0.313376  0.250000  0.974733  1
  O  O29  1  0.128508  0.077396  0.786737  1
  O  O30  1  0.128508  0.422604  0.786737  1
  O  O31  1  0.080579  0.750000  0.774722  1
  O  O32  1  0.379679  0.537509  0.881969  1
  O  O33  1  0.379679  0.962491  0.881969  1
  O  O34  1  0.766198  0.064203  0.969989  1
  O  O35  1  0.766198  0.435797  0.969989  1
  O  O36  1  0.444814  0.750000  0.722789  1
  O  O37  1  0.539609  0.072291  0.755396  1
  O  O38  1  0.539609  0.427709  0.755396  1
  O  O39  1  0.912157  0.539727  0.831389  1
  O  O40  1  0.912157  0.960273  0.831389  1
  O  O41  1  0.281596  0.481086  0.627887  1
  O  O42  1  0.281596  0.018914  0.627887  1
  O  O43  1  0.195936  0.750000  0.459756  1
  O  O44  1  0.077258  0.046474  0.413795  1
  O  O45  1  0.077258  0.453526  0.413795  1
  O  O46  1  0.670060  0.979025  0.592738  1
  O  O47  1  0.670060  0.520975  0.592738  1
  O  O48  1  0.329940  0.479025  0.407262  1
  O  O49  1  0.329940  0.020975  0.407262  1
  O  O50  1  0.922742  0.546474  0.586205  1
  O  O51  1  0.922742  0.953526  0.586205  1
  O  O52  1  0.804064  0.250000  0.540244  1
  O  O53  1  0.718404  0.518914  0.372113  1
  O  O54  1  0.718404  0.981086  0.372113  1
  O  O55  1  0.087843  0.039727  0.168611  1
  O  O56  1  0.087843  0.460273  0.168611  1
  O  O57  1  0.460391  0.572291  0.244604  1
  O  O58  1  0.460391  0.927709  0.244604  1
  O  O59  1  0.555186  0.250000  0.277211  1
  O  O60  1  0.233802  0.564203  0.030011  1
  O  O61  1  0.233802  0.935797  0.030011  1
  O  O62  1  0.620321  0.037509  0.118031  1
  O  O63  1  0.620321  0.462491  0.118031  1
  O  O64  1  0.919421  0.250000  0.225278  1
  O  O65  1  0.871492  0.577396  0.213263  1
  O  O66  1  0.871492  0.922604  0.213263  1
  O  O67  1  0.686624  0.750000  0.025267  1
