# generated using pymatgen
data_Na3MnO3
_symmetry_space_group_name_H-M   'P 1'
_cell_length_a   5.91109795
_cell_length_b   12.50842405
_cell_length_c   6.36146950
_cell_angle_alpha   90.00000000
_cell_angle_beta   121.49045973
_cell_angle_gamma   90.00000000
_symmetry_Int_Tables_number   1
_chemical_formula_structural   Na3MnO3
_chemical_formula_sum   'Na12 Mn4 O12'
_cell_volume   401.08672972
_cell_formula_units_Z   4
loop_
 _symmetry_equiv_pos_site_id
 _symmetry_equiv_pos_as_xyz
  1  'x, y, z'
loop_
 _atom_site_type_symbol
 _atom_site_label
 _atom_site_symmetry_multiplicity
 _atom_site_fract_x
 _atom_site_fract_y
 _atom_site_fract_z
 _atom_site_occupancy
  Na  Na0  1  0.939411  0.778555  0.139637  1
  Na  Na1  1  0.966092  0.516510  0.245407  1
  Na  Na2  1  0.033908  0.016510  0.254593  1
  Na  Na3  1  0.060589  0.278555  0.360363  1
  Na  Na4  1  0.437496  0.400975  0.289170  1
  Na  Na5  1  0.562504  0.900975  0.210830  1
  Na  Na6  1  0.437496  0.099025  0.789170  1
  Na  Na7  1  0.562504  0.599025  0.710830  1
  Na  Na8  1  0.939411  0.721445  0.639637  1
  Na  Na9  1  0.966092  0.983490  0.745407  1
  Na  Na10  1  0.033908  0.483490  0.754593  1
  Na  Na11  1  0.060589  0.221445  0.860363  1
  Mn  Mn12  1  0.410729  0.659952  0.173015  1
  Mn  Mn13  1  0.589271  0.159952  0.326985  1
  Mn  Mn14  1  0.410729  0.840048  0.673015  1
  Mn  Mn15  1  0.589271  0.340048  0.826985  1
  O  O16  1  0.043967  0.630411  0.994968  1
  O  O17  1  0.308114  0.066128  0.113857  1
  O  O18  1  0.544560  0.267807  0.069705  1
  O  O19  1  0.043967  0.869589  0.494968  1
  O  O20  1  0.455440  0.767807  0.430295  1
  O  O21  1  0.308114  0.433872  0.613857  1
  O  O22  1  0.691886  0.566128  0.386143  1
  O  O23  1  0.544560  0.232193  0.569705  1
  O  O24  1  0.956033  0.130411  0.505032  1
  O  O25  1  0.455440  0.732193  0.930295  1
  O  O26  1  0.691886  0.933872  0.886143  1
  O  O27  1  0.956033  0.369589  0.005032  1
