# generated using pymatgen
data_KN3
_symmetry_space_group_name_H-M   'P 1'
_cell_length_a   5.71395019
_cell_length_b   5.71395019
_cell_length_c   5.71395019
_cell_angle_alpha   113.97111724
_cell_angle_beta   113.97111724
_cell_angle_gamma   100.80388110
_symmetry_Int_Tables_number   1
_chemical_formula_structural   KN3
_chemical_formula_sum   'K2 N6'
_cell_volume   141.19994252
_cell_formula_units_Z   2
loop_
 _symmetry_equiv_pos_site_id
 _symmetry_equiv_pos_as_xyz
  1  'x, y, z'
loop_
 _atom_site_type_symbol
 _atom_site_label
 _atom_site_symmetry_multiplicity
 _atom_site_fract_x
 _atom_site_fract_y
 _atom_site_fract_z
 _atom_site_occupancy
  K  K0  1  0.750000  0.750000  0.000000  1
  K  K1  1  0.250000  0.250000  0.000000  1
  N  N2  1  0.500000  1.000000  0.500000  1
  N  N3  1  0.000000  0.500000  0.500000  1
  N  N4  1  0.365113  0.134887  0.500000  1
  N  N5  1  0.634887  0.865113  0.500000  1
  N  N6  1  0.865113  0.365113  0.230226  1
  N  N7  1  0.134887  0.634887  0.769774  1
