# generated using pymatgen
data_Li6TiNi3(PO4)6
_symmetry_space_group_name_H-M   'P 1'
_cell_length_a   8.60191050
_cell_length_b   8.63950311
_cell_length_c   8.65884532
_cell_angle_alpha   61.41137990
_cell_angle_beta   61.28443174
_cell_angle_gamma   61.18166037
_symmetry_Int_Tables_number   1
_chemical_formula_structural   Li6TiNi3(PO4)6
_chemical_formula_sum   'Li6 Ti1 Ni3 P6 O24'
_cell_volume   468.23501995
_cell_formula_units_Z   1
loop_
 _symmetry_equiv_pos_site_id
 _symmetry_equiv_pos_as_xyz
  1  'x, y, z'
loop_
 _atom_site_type_symbol
 _atom_site_label
 _atom_site_symmetry_multiplicity
 _atom_site_fract_x
 _atom_site_fract_y
 _atom_site_fract_z
 _atom_site_occupancy
  Li  Li0  1  0.977036  0.998889  0.984148  1
  Li  Li1  1  0.256095  0.648510  0.842435  1
  Li  Li2  1  0.520860  0.512297  0.496541  1
  Li  Li3  1  0.705856  0.357512  0.150114  1
  Li  Li4  1  0.349492  0.160150  0.700075  1
  Li  Li5  1  0.156417  0.701531  0.353188  1
  Ti  Ti6  1  0.148658  0.146445  0.148024  1
  Ni  Ni7  1  0.857331  0.858607  0.853805  1
  Ni  Ni8  1  0.642449  0.644047  0.641181  1
  Ni  Ni9  1  0.353952  0.353079  0.352447  1
  P  P10  1  0.953616  0.552079  0.249889  1
  P  P11  1  0.550094  0.250970  0.955514  1
  P  P12  1  0.249981  0.958177  0.548759  1
  P  P13  1  0.752506  0.046898  0.452423  1
  P  P14  1  0.450689  0.751106  0.037787  1
  P  P15  1  0.045994  0.460638  0.755150  1
  O  O16  1  0.865211  0.492820  0.737529  1
  O  O17  1  0.723990  0.873538  0.479561  1
  O  O18  1  0.941395  0.736983  0.086305  1
  O  O19  1  0.446805  0.718769  0.880457  1
  O  O20  1  0.766090  0.554697  0.408281  1
  O  O21  1  0.012953  0.385156  0.183970  1
  O  O22  1  0.741118  0.100037  0.917966  1
  O  O23  1  0.526410  0.422321  0.779768  1
  O  O24  1  0.405559  0.765460  0.553266  1
  O  O25  1  0.819857  0.999469  0.607900  1
  O  O26  1  0.897456  0.101349  0.252220  1
  O  O27  1  0.615351  0.808975  0.982223  1
  O  O28  1  0.385398  0.178323  0.021289  1
  O  O29  1  0.097604  0.928150  0.741882  1
  O  O30  1  0.178853  0.018064  0.386746  1
  O  O31  1  0.578796  0.227797  0.456486  1
  O  O32  1  0.456269  0.578251  0.219696  1
  O  O33  1  0.253901  0.900679  0.102150  1
  O  O34  1  0.037885  0.608081  0.812812  1
  O  O35  1  0.222418  0.455922  0.575165  1
  O  O36  1  0.532051  0.298324  0.115230  1
  O  O37  1  0.101218  0.258011  0.899176  1
  O  O38  1  0.310012  0.111395  0.523672  1
  O  O39  1  0.112379  0.525494  0.305769  1
