# generated using pymatgen
data_HoBO3
_symmetry_space_group_name_H-M   'P 1'
_cell_length_a   6.13236271
_cell_length_b   6.38944315
_cell_length_c   6.39136893
_cell_angle_alpha   92.76987114
_cell_angle_beta   108.23586223
_cell_angle_gamma   107.52607276
_symmetry_Int_Tables_number   1
_chemical_formula_structural   HoBO3
_chemical_formula_sum   'Ho4 B4 O12'
_cell_volume   223.98313971
_cell_formula_units_Z   4
loop_
 _symmetry_equiv_pos_site_id
 _symmetry_equiv_pos_as_xyz
  1  'x, y, z'
loop_
 _atom_site_type_symbol
 _atom_site_label
 _atom_site_symmetry_multiplicity
 _atom_site_fract_x
 _atom_site_fract_y
 _atom_site_fract_z
 _atom_site_occupancy
  Ho  Ho0  1  0.560637  0.185039  0.781359  1
  Ho  Ho1  1  0.943398  0.729541  0.654955  1
  Ho  Ho2  1  0.056602  0.270459  0.345045  1
  Ho  Ho3  1  0.439363  0.814961  0.218641  1
  B  B4  1  0.023838  0.241400  0.787537  1
  B  B5  1  0.506975  0.720821  0.728991  1
  B  B6  1  0.493025  0.279179  0.271009  1
  B  B7  1  0.976162  0.758600  0.212463  1
  O  O8  1  0.376951  0.799595  0.837910  1
  O  O9  1  0.968973  0.231391  0.978796  1
  O  O10  1  0.152247  0.125045  0.716590  1
  O  O11  1  0.540717  0.520119  0.733307  1
  O  O12  1  0.627144  0.872410  0.615261  1
  O  O13  1  0.910355  0.358539  0.633238  1
  O  O14  1  0.089645  0.641461  0.366762  1
  O  O15  1  0.372856  0.127590  0.384739  1
  O  O16  1  0.459283  0.479881  0.266693  1
  O  O17  1  0.847753  0.874955  0.283410  1
  O  O18  1  0.031027  0.768609  0.021204  1
  O  O19  1  0.623049  0.200405  0.162090  1
