# generated using pymatgen
data_Rb(MoS)3
_symmetry_space_group_name_H-M   'P 1'
_cell_length_a   9.23467262
_cell_length_b   9.23467262
_cell_length_c   4.45907828
_cell_angle_alpha   90.00000000
_cell_angle_beta   90.00000000
_cell_angle_gamma   120.00000000
_symmetry_Int_Tables_number   1
_chemical_formula_structural   Rb(MoS)3
_chemical_formula_sum   'Rb2 Mo6 S6'
_cell_volume   329.32047732
_cell_formula_units_Z   2
loop_
 _symmetry_equiv_pos_site_id
 _symmetry_equiv_pos_as_xyz
  1  'x, y, z'
loop_
 _atom_site_type_symbol
 _atom_site_label
 _atom_site_symmetry_multiplicity
 _atom_site_fract_x
 _atom_site_fract_y
 _atom_site_fract_z
 _atom_site_occupancy
  Rb  Rb0  1  0.333333  0.666667  0.750000  1
  Rb  Rb1  1  0.666667  0.333333  0.250000  1
  Mo  Mo2  1  0.971483  0.820533  0.250000  1
  Mo  Mo3  1  0.849050  0.028517  0.250000  1
  Mo  Mo4  1  0.150950  0.971483  0.750000  1
  Mo  Mo5  1  0.028517  0.179467  0.750000  1
  Mo  Mo6  1  0.179467  0.150950  0.250000  1
  Mo  Mo7  1  0.820533  0.849050  0.750000  1
  S  S8  1  0.944951  0.663693  0.750000  1
  S  S9  1  0.055049  0.336307  0.250000  1
  S  S10  1  0.281258  0.944951  0.250000  1
  S  S11  1  0.663693  0.718742  0.250000  1
  S  S12  1  0.336307  0.281258  0.750000  1
  S  S13  1  0.718742  0.055049  0.750000  1
