# generated using pymatgen
data_KIn(GeO3)2
_symmetry_space_group_name_H-M   'P 1'
_cell_length_a   7.13633581
_cell_length_b   7.13633581
_cell_length_c   5.72381181
_cell_angle_alpha   78.81997301
_cell_angle_beta   101.18002699
_cell_angle_gamma   94.93763303
_symmetry_Int_Tables_number   1
_chemical_formula_structural   KIn(GeO3)2
_chemical_formula_sum   'K2 In2 Ge4 O12'
_cell_volume   280.18343836
_cell_formula_units_Z   2
loop_
 _symmetry_equiv_pos_site_id
 _symmetry_equiv_pos_as_xyz
  1  'x, y, z'
loop_
 _atom_site_type_symbol
 _atom_site_label
 _atom_site_symmetry_multiplicity
 _atom_site_fract_x
 _atom_site_fract_y
 _atom_site_fract_z
 _atom_site_occupancy
  K  K0  1  0.311776  0.311776  0.250000  1
  K  K1  1  0.688224  0.688224  0.750000  1
  In  In2  1  0.895979  0.895979  0.250000  1
  In  In3  1  0.104021  0.104021  0.750000  1
  Ge  Ge4  1  0.626452  0.195488  0.791915  1
  Ge  Ge5  1  0.373548  0.804512  0.208085  1
  Ge  Ge6  1  0.195488  0.626452  0.708085  1
  Ge  Ge7  1  0.804512  0.373548  0.291915  1
  O  O8  1  0.334579  0.634184  0.476129  1
  O  O9  1  0.634184  0.334579  0.023871  1
  O  O10  1  0.665421  0.365816  0.523871  1
  O  O11  1  0.365816  0.665421  0.976129  1
  O  O12  1  0.094745  0.397541  0.785055  1
  O  O13  1  0.397541  0.094745  0.714945  1
  O  O14  1  0.905255  0.602459  0.214945  1
  O  O15  1  0.602459  0.905255  0.285055  1
  O  O16  1  0.181529  0.961824  0.128996  1
  O  O17  1  0.961824  0.181529  0.371004  1
  O  O18  1  0.818471  0.038176  0.871004  1
  O  O19  1  0.038176  0.818471  0.628996  1
