# generated using pymatgen
data_Pu3O2
_symmetry_space_group_name_H-M   'P 1'
_cell_length_a   6.67186426
_cell_length_b   6.67186426
_cell_length_c   6.67186426
_cell_angle_alpha   55.15185222
_cell_angle_beta   55.15185222
_cell_angle_gamma   55.15185222
_symmetry_Int_Tables_number   1
_chemical_formula_structural   Pu3O2
_chemical_formula_sum   'Pu6 O4'
_cell_volume   186.32958988
_cell_formula_units_Z   2
loop_
 _symmetry_equiv_pos_site_id
 _symmetry_equiv_pos_as_xyz
  1  'x, y, z'
loop_
 _atom_site_type_symbol
 _atom_site_label
 _atom_site_symmetry_multiplicity
 _atom_site_fract_x
 _atom_site_fract_y
 _atom_site_fract_z
 _atom_site_occupancy
  Pu  Pu0  1  0.581935  0.918065  0.250000  1
  Pu  Pu1  1  0.250000  0.581935  0.918065  1
  Pu  Pu2  1  0.918065  0.250000  0.581935  1
  Pu  Pu3  1  0.081935  0.750000  0.418065  1
  Pu  Pu4  1  0.750000  0.418065  0.081935  1
  Pu  Pu5  1  0.418065  0.081935  0.750000  1
  O  O6  1  0.662325  0.662325  0.662325  1
  O  O7  1  0.837675  0.837675  0.837675  1
  O  O8  1  0.162325  0.162325  0.162325  1
  O  O9  1  0.337675  0.337675  0.337675  1
