# generated using pymatgen
data_Al11AgO17
_symmetry_space_group_name_H-M   'P 1'
_cell_length_a   5.65471003
_cell_length_b   5.65471003
_cell_length_c   22.75298561
_cell_angle_alpha   90.00000000
_cell_angle_beta   90.00000000
_cell_angle_gamma   119.97133590
_symmetry_Int_Tables_number   1
_chemical_formula_structural   Al11AgO17
_chemical_formula_sum   'Al22 Ag2 O34'
_cell_volume   630.25321730
_cell_formula_units_Z   2
loop_
 _symmetry_equiv_pos_site_id
 _symmetry_equiv_pos_as_xyz
  1  'x, y, z'
loop_
 _atom_site_type_symbol
 _atom_site_label
 _atom_site_symmetry_multiplicity
 _atom_site_fract_x
 _atom_site_fract_y
 _atom_site_fract_z
 _atom_site_occupancy
  Al  Al0  1  0.334676  0.166992  0.892473  1
  Al  Al1  1  0.334676  0.166992  0.607527  1
  Al  Al2  1  0.668360  0.334151  0.324193  1
  Al  Al3  1  0.666715  0.333461  0.475129  1
  Al  Al4  1  0.000327  0.000327  0.500000  1
  Al  Al5  1  0.000327  0.000327  1.000000  1
  Al  Al6  1  0.832230  0.166949  0.892477  1
  Al  Al7  1  0.668360  0.334151  0.175807  1
  Al  Al8  1  0.832230  0.166949  0.607523  1
  Al  Al9  1  0.666715  0.333461  0.024871  1
  Al  Al10  1  0.832870  0.665872  0.893118  1
  Al  Al11  1  0.832870  0.665872  0.606882  1
  Al  Al12  1  0.166992  0.334676  0.107527  1
  Al  Al13  1  0.166992  0.334676  0.392473  1
  Al  Al14  1  0.166949  0.832230  0.107523  1
  Al  Al15  1  0.334151  0.668360  0.675807  1
  Al  Al16  1  0.166949  0.832230  0.392477  1
  Al  Al17  1  0.334151  0.668360  0.824193  1
  Al  Al18  1  0.333461  0.666715  0.524871  1
  Al  Al19  1  0.333461  0.666715  0.975129  1
  Al  Al20  1  0.665872  0.832870  0.393118  1
  Al  Al21  1  0.665872  0.832870  0.106882  1
  Ag  Ag22  1  0.704780  0.409570  0.750000  1
  Ag  Ag23  1  0.409570  0.704780  0.250000  1
  O  O24  1  0.314685  0.157402  0.449900  1
  O  O25  1  0.314685  0.157402  0.050100  1
  O  O26  1  0.502890  0.005784  0.854301  1
  O  O27  1  0.502890  0.005784  0.645699  1
  O  O28  1  0.662580  0.331281  0.250000  1
  O  O29  1  0.842558  0.156938  0.049881  1
  O  O30  1  0.504235  0.497288  0.853604  1
  O  O31  1  0.504235  0.497288  0.646396  1
  O  O32  1  0.999622  0.999851  0.358154  1
  O  O33  1  0.999622  0.999851  0.141846  1
  O  O34  1  0.999851  0.999622  0.858154  1
  O  O35  1  0.999851  0.999622  0.641846  1
  O  O36  1  0.666863  0.333724  0.944493  1
  O  O37  1  0.666863  0.333724  0.555507  1
  O  O38  1  0.842558  0.156938  0.450119  1
  O  O39  1  0.157402  0.314685  0.949900  1
  O  O40  1  0.157402  0.314685  0.550100  1
  O  O41  1  0.993053  0.497293  0.646390  1
  O  O42  1  0.993053  0.497293  0.853610  1
  O  O43  1  0.005784  0.502890  0.145699  1
  O  O44  1  0.005784  0.502890  0.354301  1
  O  O45  1  0.842556  0.685689  0.450078  1
  O  O46  1  0.842556  0.685689  0.049922  1
  O  O47  1  0.333724  0.666863  0.055507  1
  O  O48  1  0.331281  0.662580  0.750000  1
  O  O49  1  0.497288  0.504235  0.146396  1
  O  O50  1  0.497288  0.504235  0.353604  1
  O  O51  1  0.156938  0.842558  0.549881  1
  O  O52  1  0.156938  0.842558  0.950119  1
  O  O53  1  0.333724  0.666863  0.444493  1
  O  O54  1  0.497293  0.993053  0.353610  1
  O  O55  1  0.497293  0.993053  0.146390  1
  O  O56  1  0.685689  0.842556  0.549922  1
  O  O57  1  0.685689  0.842556  0.950078  1
