# generated using pymatgen
data_K2P3
_symmetry_space_group_name_H-M   'P 1'
_cell_length_a   8.62669645
_cell_length_b   8.42428143
_cell_length_c   6.42487933
_cell_angle_alpha   69.54646639
_cell_angle_beta   66.20165979
_cell_angle_gamma   44.25187383
_symmetry_Int_Tables_number   1
_chemical_formula_structural   K2P3
_chemical_formula_sum   'K4 P6'
_cell_volume   296.78123253
_cell_formula_units_Z   2
loop_
 _symmetry_equiv_pos_site_id
 _symmetry_equiv_pos_as_xyz
  1  'x, y, z'
loop_
 _atom_site_type_symbol
 _atom_site_label
 _atom_site_symmetry_multiplicity
 _atom_site_fract_x
 _atom_site_fract_y
 _atom_site_fract_z
 _atom_site_occupancy
  K  K0  1  0.250000  0.250000  0.250000  1
  K  K1  1  0.750000  0.750000  0.750000  1
  K  K2  1  0.771503  0.228497  0.771503  1
  K  K3  1  0.228497  0.771503  0.228497  1
  P  P4  1  0.640531  0.209086  0.359469  1
  P  P5  1  0.790914  0.359469  0.209086  1
  P  P6  1  0.359469  0.790914  0.640531  1
  P  P7  1  0.209086  0.640531  0.790914  1
  P  P8  1  0.348797  0.348797  0.651203  1
  P  P9  1  0.651203  0.651203  0.348797  1
