# generated using pymatgen
data_K2CrH2F8
_symmetry_space_group_name_H-M   'P 1'
_cell_length_a   5.34859489
_cell_length_b   8.10116380
_cell_length_c   8.42657006
_cell_angle_alpha   90.00000000
_cell_angle_beta   92.67195892
_cell_angle_gamma   90.00000000
_symmetry_Int_Tables_number   1
_chemical_formula_structural   K2CrH2F8
_chemical_formula_sum   'K4 Cr2 H4 F16'
_cell_volume   364.72500327
_cell_formula_units_Z   2
loop_
 _symmetry_equiv_pos_site_id
 _symmetry_equiv_pos_as_xyz
  1  'x, y, z'
loop_
 _atom_site_type_symbol
 _atom_site_label
 _atom_site_symmetry_multiplicity
 _atom_site_fract_x
 _atom_site_fract_y
 _atom_site_fract_z
 _atom_site_occupancy
  K  K0  1  0.066125  0.313101  0.281418  1
  K  K1  1  0.933875  0.813101  0.218582  1
  K  K2  1  0.066125  0.186899  0.781418  1
  K  K3  1  0.933875  0.686899  0.718582  1
  Cr  Cr4  1  0.500000  0.000000  0.500000  1
  Cr  Cr5  1  0.500000  0.500000  0.000000  1
  H  H6  1  0.378175  0.659423  0.449990  1
  H  H7  1  0.621825  0.159423  0.050010  1
  H  H8  1  0.378175  0.840577  0.949990  1
  H  H9  1  0.621825  0.340577  0.550010  1
  F  F10  1  0.594471  0.772284  0.467042  1
  F  F11  1  0.219151  0.598426  0.440272  1
  F  F12  1  0.793504  0.070039  0.419005  1
  F  F13  1  0.349444  0.005251  0.299353  1
  F  F14  1  0.650556  0.505251  0.200647  1
  F  F15  1  0.206496  0.570039  0.080995  1
  F  F16  1  0.780849  0.098426  0.059728  1
  F  F17  1  0.405529  0.272284  0.032958  1
  F  F18  1  0.594471  0.727716  0.967042  1
  F  F19  1  0.219151  0.901574  0.940272  1
  F  F20  1  0.793504  0.429961  0.919005  1
  F  F21  1  0.349444  0.494749  0.799353  1
  F  F22  1  0.650556  0.994749  0.700647  1
  F  F23  1  0.206496  0.929961  0.580995  1
  F  F24  1  0.780849  0.401574  0.559728  1
  F  F25  1  0.405529  0.227716  0.532958  1
