# generated using pymatgen
data_Ti3N2O3
_symmetry_space_group_name_H-M   'P 1'
_cell_length_a   5.29433915
_cell_length_b   5.29433915
_cell_length_c   9.97358425
_cell_angle_alpha   89.53075041
_cell_angle_beta   90.46924959
_cell_angle_gamma   137.74595113
_symmetry_Int_Tables_number   1
_chemical_formula_structural   Ti3N2O3
_chemical_formula_sum   'Ti6 N4 O6'
_cell_volume   187.97413188
_cell_formula_units_Z   2
loop_
 _symmetry_equiv_pos_site_id
 _symmetry_equiv_pos_as_xyz
  1  'x, y, z'
loop_
 _atom_site_type_symbol
 _atom_site_label
 _atom_site_symmetry_multiplicity
 _atom_site_fract_x
 _atom_site_fract_y
 _atom_site_fract_z
 _atom_site_occupancy
  Ti  Ti0  1  0.808300  0.191700  0.751312  1
  Ti  Ti1  1  0.855760  0.144240  0.052937  1
  Ti  Ti2  1  0.865304  0.134696  0.446954  1
  Ti  Ti3  1  0.202467  0.797533  0.252811  1
  Ti  Ti4  1  0.143948  0.856052  0.951892  1
  Ti  Ti5  1  0.135325  0.864675  0.556783  1
  N  N6  1  0.693989  0.306011  0.923115  1
  N  N7  1  0.954175  0.045825  0.618255  1
  N  N8  1  0.305269  0.694731  0.424747  1
  N  N9  1  0.307482  0.692518  0.077945  1
  O  O10  1  0.684778  0.315222  0.575683  1
  O  O11  1  0.752698  0.247302  0.247089  1
  O  O12  1  0.954172  0.045828  0.882357  1
  O  O13  1  0.245833  0.754167  0.741949  1
  O  O14  1  0.045863  0.954137  0.117240  1
  O  O15  1  0.044629  0.955371  0.378932  1
