# generated using pymatgen
data_Li2FePHO5
_symmetry_space_group_name_H-M   'P 1'
_cell_length_a   5.56540417
_cell_length_b   9.60963042
_cell_length_c   8.32838836
_cell_angle_alpha   90.00000000
_cell_angle_beta   104.47249393
_cell_angle_gamma   90.00000000
_symmetry_Int_Tables_number   1
_chemical_formula_structural   Li2FePHO5
_chemical_formula_sum   'Li8 Fe4 P4 H4 O20'
_cell_volume   431.28049799
_cell_formula_units_Z   4
loop_
 _symmetry_equiv_pos_site_id
 _symmetry_equiv_pos_as_xyz
  1  'x, y, z'
loop_
 _atom_site_type_symbol
 _atom_site_label
 _atom_site_symmetry_multiplicity
 _atom_site_fract_x
 _atom_site_fract_y
 _atom_site_fract_z
 _atom_site_occupancy
  Li  Li0  1  0.268672  0.837680  0.686563  1
  Li  Li1  1  0.332402  0.170399  0.589243  1
  Li  Li2  1  0.768672  0.662320  0.686563  1
  Li  Li3  1  0.832402  0.329601  0.589243  1
  Li  Li4  1  0.167598  0.670399  0.410757  1
  Li  Li5  1  0.231328  0.337680  0.313437  1
  Li  Li6  1  0.667598  0.829601  0.410757  1
  Li  Li7  1  0.731328  0.162320  0.313437  1
  Fe  Fe8  1  0.210496  0.131885  0.986676  1
  Fe  Fe9  1  0.710496  0.368115  0.986676  1
  Fe  Fe10  1  0.289504  0.631885  0.013324  1
  Fe  Fe11  1  0.789504  0.868115  0.013324  1
  P  P12  1  0.368779  0.477010  0.688327  1
  P  P13  1  0.868779  0.022990  0.688327  1
  P  P14  1  0.131221  0.977010  0.311673  1
  P  P15  1  0.631221  0.522990  0.311673  1
  H  H16  1  0.151282  0.375916  0.977522  1
  H  H17  1  0.651282  0.124084  0.977522  1
  H  H18  1  0.348718  0.875916  0.022478  1
  H  H19  1  0.848718  0.624084  0.022478  1
  O  O20  1  0.421566  0.815918  0.950065  1
  O  O21  1  0.921566  0.684082  0.950065  1
  O  O22  1  0.279116  0.473098  0.852744  1
  O  O23  1  0.142563  0.081012  0.737922  1
  O  O24  1  0.779116  0.026902  0.852744  1
  O  O25  1  0.642563  0.418988  0.737922  1
  O  O26  1  0.377416  0.630267  0.632170  1
  O  O27  1  0.201914  0.379680  0.560290  1
  O  O28  1  0.877416  0.869733  0.632170  1
  O  O29  1  0.701914  0.120320  0.560290  1
  O  O30  1  0.298086  0.879680  0.439710  1
  O  O31  1  0.122584  0.130267  0.367830  1
  O  O32  1  0.798086  0.620320  0.439710  1
  O  O33  1  0.622584  0.369733  0.367830  1
  O  O34  1  0.357437  0.581012  0.262078  1
  O  O35  1  0.220884  0.973098  0.147256  1
  O  O36  1  0.857437  0.918988  0.262078  1
  O  O37  1  0.720884  0.526902  0.147256  1
  O  O38  1  0.078434  0.315918  0.049935  1
  O  O39  1  0.578434  0.184082  0.049935  1
