# generated using pymatgen
data_V3O5F
_symmetry_space_group_name_H-M   'P 1'
_cell_length_a   5.50706800
_cell_length_b   4.62212678
_cell_length_c   7.61356122
_cell_angle_alpha   90.00000000
_cell_angle_beta   94.15850625
_cell_angle_gamma   90.00000000
_symmetry_Int_Tables_number   1
_chemical_formula_structural   V3O5F
_chemical_formula_sum   'V6 O10 F2'
_cell_volume   193.28815564
_cell_formula_units_Z   2
loop_
 _symmetry_equiv_pos_site_id
 _symmetry_equiv_pos_as_xyz
  1  'x, y, z'
loop_
 _atom_site_type_symbol
 _atom_site_label
 _atom_site_symmetry_multiplicity
 _atom_site_fract_x
 _atom_site_fract_y
 _atom_site_fract_z
 _atom_site_occupancy
  V  V0  1  0.582240  0.472158  0.839916  1
  V  V1  1  0.904571  0.512008  0.164588  1
  V  V2  1  0.251076  0.508266  0.517669  1
  V  V3  1  0.095429  0.012008  0.835412  1
  V  V4  1  0.748924  0.008266  0.482331  1
  V  V5  1  0.417760  0.972158  0.160084  1
  O  O6  1  0.051312  0.209010  0.591876  1
  O  O7  1  0.704261  0.192838  0.261822  1
  O  O8  1  0.391318  0.202954  0.945875  1
  O  O9  1  0.878223  0.305282  0.924810  1
  O  O10  1  0.553510  0.294733  0.603945  1
  O  O11  1  0.295739  0.692838  0.738178  1
  O  O12  1  0.948688  0.709010  0.408124  1
  O  O13  1  0.608682  0.702954  0.054125  1
  O  O14  1  0.446490  0.794733  0.396055  1
  O  O15  1  0.121777  0.805282  0.075190  1
  F  F16  1  0.216375  0.302750  0.271053  1
  F  F17  1  0.783625  0.802750  0.728947  1
