# generated using pymatgen
data_Mn12O5F19
_symmetry_space_group_name_H-M   'P 1'
_cell_length_a   4.90827802
_cell_length_b   5.88737714
_cell_length_c   15.82534937
_cell_angle_alpha   91.79028638
_cell_angle_beta   90.21903313
_cell_angle_gamma   92.31039964
_symmetry_Int_Tables_number   1
_chemical_formula_structural   Mn12O5F19
_chemical_formula_sum   'Mn12 O5 F19'
_cell_volume   456.70258296
_cell_formula_units_Z   1
loop_
 _symmetry_equiv_pos_site_id
 _symmetry_equiv_pos_as_xyz
  1  'x, y, z'
loop_
 _atom_site_type_symbol
 _atom_site_label
 _atom_site_symmetry_multiplicity
 _atom_site_fract_x
 _atom_site_fract_y
 _atom_site_fract_z
 _atom_site_occupancy
  Mn  Mn0  1  0.994876  0.142797  0.576877  1
  Mn  Mn1  1  0.006670  0.853396  0.755502  1
  Mn  Mn2  1  0.030957  0.169150  0.918443  1
  Mn  Mn3  1  0.954176  0.199807  0.243795  1
  Mn  Mn4  1  0.981656  0.825476  0.412726  1
  Mn  Mn5  1  0.008266  0.836072  0.085895  1
  Mn  Mn6  1  0.510007  0.346821  0.414938  1
  Mn  Mn7  1  0.497620  0.347994  0.082157  1
  Mn  Mn8  1  0.481852  0.320519  0.750335  1
  Mn  Mn9  1  0.489892  0.644806  0.916992  1
  Mn  Mn10  1  0.522694  0.680414  0.581869  1
  Mn  Mn11  1  0.514512  0.646089  0.254006  1
  O  O12  1  0.793418  0.886637  0.520419  1
  O  O13  1  0.717489  0.606959  0.357942  1
  O  O14  1  0.697381  0.408187  0.188299  1
  O  O15  1  0.292845  0.374255  0.977044  1
  O  O16  1  0.215412  0.116827  0.813585  1
  F  F17  1  0.763852  0.102590  0.689513  1
  F  F18  1  0.763707  0.109740  0.357391  1
  F  F19  1  0.796216  0.125846  0.024939  1
  F  F20  1  0.770145  0.896243  0.869861  1
  F  F21  1  0.760119  0.901374  0.191613  1
  F  F22  1  0.740351  0.391941  0.858883  1
  F  F23  1  0.729540  0.613223  0.698777  1
  F  F24  1  0.734049  0.384018  0.529767  1
  F  F25  1  0.728169  0.605984  0.029842  1
  F  F26  1  0.267580  0.611366  0.802296  1
  F  F27  1  0.263239  0.381261  0.633080  1
  F  F28  1  0.269157  0.606730  0.474351  1
  F  F29  1  0.274660  0.625611  0.148735  1
  F  F30  1  0.253674  0.376087  0.309451  1
  F  F31  1  0.235812  0.104856  0.465380  1
  F  F32  1  0.237108  0.897984  0.641578  1
  F  F33  1  0.237247  0.876709  0.976571  1
  F  F34  1  0.236493  0.127812  0.139385  1
  F  F35  1  0.229156  0.854417  0.307758  1
