# generated using pymatgen
data_LiCo3(SiO4)2
_symmetry_space_group_name_H-M   'P 1'
_cell_length_a   5.02877537
_cell_length_b   8.81065526
_cell_length_c   13.38341970
_cell_angle_alpha   108.99503900
_cell_angle_beta   98.93452064
_cell_angle_gamma   91.01664375
_symmetry_Int_Tables_number   1
_chemical_formula_structural   LiCo3(SiO4)2
_chemical_formula_sum   'Li3 Co9 Si6 O24'
_cell_volume   552.40160633
_cell_formula_units_Z   3
loop_
 _symmetry_equiv_pos_site_id
 _symmetry_equiv_pos_as_xyz
  1  'x, y, z'
loop_
 _atom_site_type_symbol
 _atom_site_label
 _atom_site_symmetry_multiplicity
 _atom_site_fract_x
 _atom_site_fract_y
 _atom_site_fract_z
 _atom_site_occupancy
  Li  Li0  1  0.387899  0.613198  0.683141  1
  Li  Li1  1  0.488057  0.112855  0.853309  1
  Li  Li2  1  0.712744  0.346580  0.361260  1
  Co  Co3  1  0.267762  0.214507  0.492076  1
  Co  Co4  1  0.279605  0.865935  0.337921  1
  Co  Co5  1  0.211882  0.450584  0.182595  1
  Co  Co6  1  0.916279  0.597842  0.842120  1
  Co  Co7  1  0.990433  0.014084  0.997117  1
  Co  Co8  1  0.685455  0.923291  0.187564  1
  Co  Co9  1  0.610284  0.521842  0.039088  1
  Co  Co10  1  0.875227  0.706135  0.535652  1
  Co  Co11  1  0.951013  0.125442  0.688557  1
  Si  Si12  1  0.035228  0.315069  0.933677  1
  Si  Si13  1  0.470595  0.796018  0.940788  1
  Si  Si14  1  0.187293  0.147303  0.253318  1
  Si  Si15  1  0.406641  0.932766  0.595057  1
  Si  Si16  1  0.830197  0.410017  0.599508  1
  Si  Si17  1  0.754675  0.648325  0.282796  1
  O  O18  1  0.023593  0.260467  0.601933  1
  O  O19  1  0.034468  0.551770  0.588734  1
  O  O20  1  0.091903  0.906700  0.615869  1
  O  O21  1  0.163580  0.230426  0.826863  1
  O  O22  1  0.034884  0.203566  0.358307  1
  O  O23  1  0.336735  0.969130  0.960583  1
  O  O24  1  0.277479  0.655357  0.842088  1
  O  O25  1  0.383272  0.995748  0.490181  1
  O  O26  1  0.536330  0.755902  0.572638  1
  O  O27  1  0.584745  0.065265  0.700318  1
  O  O28  1  0.402281  0.013526  0.268047  1
  O  O29  1  0.285543  0.392467  0.034847  1
  O  O30  1  0.361586  0.296441  0.241810  1
  O  O31  1  0.424631  0.658201  0.264845  1
  O  O32  1  0.582681  0.347576  0.498083  1
  O  O33  1  0.766391  0.810720  0.902366  1
  O  O34  1  0.702021  0.488601  0.709154  1
  O  O35  1  0.836493  0.185355  0.957333  1
  O  O36  1  0.848037  0.466729  0.926968  1
  O  O37  1  0.526921  0.747118  0.050939  1
  O  O38  1  0.856232  0.597718  0.389543  1
  O  O39  1  0.835286  0.512340  0.176030  1
  O  O40  1  0.887003  0.824963  0.292005  1
  O  O41  1  0.954003  0.053773  0.146033  1
