# generated using pymatgen
data_SrCaI4
_symmetry_space_group_name_H-M   'P 1'
_cell_length_a   10.02407371
_cell_length_b   10.02407371
_cell_length_c   10.02407371
_cell_angle_alpha   133.04303099
_cell_angle_beta   133.04303099
_cell_angle_gamma   68.58657834
_symmetry_Int_Tables_number   1
_chemical_formula_structural   SrCaI4
_chemical_formula_sum   'Sr2 Ca2 I8'
_cell_volume   528.33332653
_cell_formula_units_Z   2
loop_
 _symmetry_equiv_pos_site_id
 _symmetry_equiv_pos_as_xyz
  1  'x, y, z'
loop_
 _atom_site_type_symbol
 _atom_site_label
 _atom_site_symmetry_multiplicity
 _atom_site_fract_x
 _atom_site_fract_y
 _atom_site_fract_z
 _atom_site_occupancy
  Sr  Sr0  1  0.000000  0.000000  0.000000  1
  Sr  Sr1  1  0.750000  0.250000  0.500000  1
  Ca  Ca2  1  0.250000  0.750000  0.500000  1
  Ca  Ca3  1  0.500000  0.500000  0.000000  1
  I  I4  1  0.064594  0.654977  0.040442  1
  I  I5  1  0.975848  0.935406  0.590384  1
  I  I6  1  0.345023  0.385465  0.409616  1
  I  I7  1  0.135465  0.225848  0.540442  1
  I  I8  1  0.614535  0.024152  0.959558  1
  I  I9  1  0.404977  0.864535  0.090384  1
  I  I10  1  0.774152  0.314594  0.909616  1
  I  I11  1  0.685406  0.595023  0.459558  1
