# generated using pymatgen
data_Na4MnO4
_symmetry_space_group_name_H-M   'P 1'
_cell_length_a   5.65947284
_cell_length_b   5.90363565
_cell_length_c   8.66543638
_cell_angle_alpha   78.98857183
_cell_angle_beta   71.01099115
_cell_angle_gamma   68.31538015
_symmetry_Int_Tables_number   1
_chemical_formula_structural   Na4MnO4
_chemical_formula_sum   'Na8 Mn2 O8'
_cell_volume   253.56850198
_cell_formula_units_Z   2
loop_
 _symmetry_equiv_pos_site_id
 _symmetry_equiv_pos_as_xyz
  1  'x, y, z'
loop_
 _atom_site_type_symbol
 _atom_site_label
 _atom_site_symmetry_multiplicity
 _atom_site_fract_x
 _atom_site_fract_y
 _atom_site_fract_z
 _atom_site_occupancy
  Na  Na0  1  0.478460  0.733582  0.569066  1
  Na  Na1  1  0.951287  0.239277  0.606197  1
  Na  Na2  1  0.521540  0.266418  0.430934  1
  Na  Na3  1  0.048713  0.760723  0.393803  1
  Na  Na4  1  0.594171  0.750237  0.176820  1
  Na  Na5  1  0.760074  0.247698  0.018631  1
  Na  Na6  1  0.239926  0.752302  0.981369  1
  Na  Na7  1  0.405829  0.249763  0.823180  1
  Mn  Mn8  1  0.152702  0.282238  0.243003  1
  Mn  Mn9  1  0.847298  0.717762  0.756997  1
  O  O10  1  0.703455  0.976461  0.624555  1
  O  O11  1  0.161070  0.511323  0.642901  1
  O  O12  1  0.838930  0.488677  0.357099  1
  O  O13  1  0.296545  0.023539  0.375445  1
  O  O14  1  0.354179  0.480049  0.201114  1
  O  O15  1  0.161831  0.124631  0.080122  1
  O  O16  1  0.645821  0.519951  0.798886  1
  O  O17  1  0.838169  0.875369  0.919878  1
