# generated using pymatgen
data_K2InP2S7
_symmetry_space_group_name_H-M   'P 1'
_cell_length_a   9.09261931
_cell_length_b   9.09261931
_cell_length_c   8.83522811
_cell_angle_alpha   74.43245101
_cell_angle_beta   105.56754899
_cell_angle_gamma   107.38254135
_symmetry_Int_Tables_number   1
_chemical_formula_structural   K2InP2S7
_chemical_formula_sum   'K4 In2 P4 S14'
_cell_volume   657.30494277
_cell_formula_units_Z   2
loop_
 _symmetry_equiv_pos_site_id
 _symmetry_equiv_pos_as_xyz
  1  'x, y, z'
loop_
 _atom_site_type_symbol
 _atom_site_label
 _atom_site_symmetry_multiplicity
 _atom_site_fract_x
 _atom_site_fract_y
 _atom_site_fract_z
 _atom_site_occupancy
  K  K0  1  0.952607  0.612046  0.159098  1
  K  K1  1  0.612046  0.952607  0.840902  1
  K  K2  1  0.047393  0.387954  0.840902  1
  K  K3  1  0.387954  0.047393  0.159098  1
  In  In4  1  0.688960  0.688960  0.500000  1
  In  In5  1  0.311040  0.311040  0.500000  1
  P  P6  1  0.059881  0.940119  0.440683  1
  P  P7  1  0.940119  0.059881  0.559317  1
  P  P8  1  0.610049  0.389951  0.814672  1
  P  P9  1  0.389951  0.610049  0.185328  1
  S  S10  1  0.630186  0.692372  0.195650  1
  S  S11  1  0.692372  0.630186  0.804350  1
  S  S12  1  0.369814  0.307628  0.804350  1
  S  S13  1  0.307628  0.369814  0.195650  1
  S  S14  1  0.005947  0.994053  0.202619  1
  S  S15  1  0.994053  0.005947  0.797381  1
  S  S16  1  0.985976  0.702575  0.533864  1
  S  S17  1  0.702575  0.985976  0.466136  1
  S  S18  1  0.014024  0.297425  0.466136  1
  S  S19  1  0.297425  0.014024  0.533864  1
  S  S20  1  0.729875  0.270125  0.009657  1
  S  S21  1  0.270125  0.729875  0.990343  1
  S  S22  1  0.638518  0.361482  0.595434  1
  S  S23  1  0.361482  0.638518  0.404566  1
