# generated using pymatgen
data_Li6Fe5CuO12
_symmetry_space_group_name_H-M   'P 1'
_cell_length_a   5.17397745
_cell_length_b   5.17397745
_cell_length_c   10.16114934
_cell_angle_alpha   89.80705403
_cell_angle_beta   90.19294597
_cell_angle_gamma   59.80063750
_symmetry_Int_Tables_number   1
_chemical_formula_structural   Li6Fe5CuO12
_chemical_formula_sum   'Li6 Fe5 Cu1 O12'
_cell_volume   235.09135096
_cell_formula_units_Z   1
loop_
 _symmetry_equiv_pos_site_id
 _symmetry_equiv_pos_as_xyz
  1  'x, y, z'
loop_
 _atom_site_type_symbol
 _atom_site_label
 _atom_site_symmetry_multiplicity
 _atom_site_fract_x
 _atom_site_fract_y
 _atom_site_fract_z
 _atom_site_occupancy
  Li  Li0  1  0.984742  0.337051  0.725189  1
  Li  Li1  1  0.662949  0.015257  0.725189  1
  Li  Li2  1  0.694122  0.305878  0.278203  1
  Li  Li3  1  0.305878  0.694122  0.721797  1
  Li  Li4  1  0.337051  0.984743  0.274811  1
  Li  Li5  1  0.015257  0.662949  0.274811  1
  Fe  Fe6  1  0.500000  0.500000  0.000000  1
  Fe  Fe7  1  0.663455  0.663455  0.500000  1
  Fe  Fe8  1  0.336545  0.336545  0.500000  1
  Fe  Fe9  1  0.832486  0.832486  0.000000  1
  Fe  Fe10  1  0.167514  0.167514  0.000000  1
  Cu  Cu11  1  0.000000  0.000000  0.500000  1
  O  O12  1  0.843865  0.156135  0.105053  1
  O  O13  1  0.841438  0.489765  0.898203  1
  O  O14  1  0.510235  0.158562  0.898203  1
  O  O15  1  0.992087  0.670708  0.611009  1
  O  O16  1  0.329292  0.007913  0.611009  1
  O  O17  1  0.635397  0.364603  0.620817  1
  O  O18  1  0.364603  0.635397  0.379183  1
  O  O19  1  0.670708  0.992087  0.388991  1
  O  O20  1  0.007913  0.329292  0.388991  1
  O  O21  1  0.489765  0.841438  0.101797  1
  O  O22  1  0.158562  0.510235  0.101797  1
  O  O23  1  0.156135  0.843865  0.894947  1
