# generated using pymatgen
data_Li2Mg2MnFe(PO4)4
_symmetry_space_group_name_H-M   'P 1'
_cell_length_a   4.81817091
_cell_length_b   5.95548445
_cell_length_c   10.07450874
_cell_angle_alpha   90.06807464
_cell_angle_beta   90.73369240
_cell_angle_gamma   90.55621904
_symmetry_Int_Tables_number   1
_chemical_formula_structural   Li2Mg2MnFe(PO4)4
_chemical_formula_sum   'Li2 Mg2 Mn1 Fe1 P4 O16'
_cell_volume   289.04584261
_cell_formula_units_Z   1
loop_
 _symmetry_equiv_pos_site_id
 _symmetry_equiv_pos_as_xyz
  1  'x, y, z'
loop_
 _atom_site_type_symbol
 _atom_site_label
 _atom_site_symmetry_multiplicity
 _atom_site_fract_x
 _atom_site_fract_y
 _atom_site_fract_z
 _atom_site_occupancy
  Li  Li0  1  0.000288  0.519493  0.000612  1
  Li  Li1  1  0.496190  0.981217  0.498178  1
  Mg  Mg2  1  0.028727  0.751549  0.279202  1
  Mg  Mg3  1  0.475408  0.746698  0.775729  1
  Mn  Mn4  1  0.550672  0.251347  0.218228  1
  Fe  Fe5  1  0.972303  0.248054  0.723428  1
  P  P6  1  0.086766  0.251119  0.400175  1
  P  P7  1  0.417549  0.248454  0.904143  1
  P  P8  1  0.573880  0.751028  0.094786  1
  P  P9  1  0.921635  0.749390  0.595390  1
  O  O10  1  0.159606  0.248613  0.550606  1
  O  O11  1  0.232682  0.042611  0.337943  1
  O  O12  1  0.217441  0.452016  0.326933  1
  O  O13  1  0.237032  0.762442  0.608788  1
  O  O14  1  0.260402  0.737628  0.107968  1
  O  O15  1  0.276990  0.049551  0.827922  1
  O  O16  1  0.261159  0.452739  0.837511  1
  O  O17  1  0.337008  0.252301  0.053137  1
  O  O18  1  0.675658  0.744435  0.951462  1
  O  O19  1  0.728659  0.547582  0.167377  1
  O  O20  1  0.710231  0.953314  0.173126  1
  O  O21  1  0.733757  0.260544  0.887990  1
  O  O22  1  0.763796  0.240499  0.383195  1
  O  O23  1  0.792959  0.545433  0.674711  1
  O  O24  1  0.774600  0.956164  0.668997  1
  O  O25  1  0.814603  0.755777  0.452462  1
