# generated using pymatgen
data_LiMn2(BO3)2
_symmetry_space_group_name_H-M   'P 1'
_cell_length_a   5.79139880
_cell_length_b   9.79512688
_cell_length_c   9.80610644
_cell_angle_alpha   65.28729485
_cell_angle_beta   80.13553081
_cell_angle_gamma   81.00672957
_symmetry_Int_Tables_number   1
_chemical_formula_structural   LiMn2(BO3)2
_chemical_formula_sum   'Li4 Mn8 B8 O24'
_cell_volume   495.62430331
_cell_formula_units_Z   4
loop_
 _symmetry_equiv_pos_site_id
 _symmetry_equiv_pos_as_xyz
  1  'x, y, z'
loop_
 _atom_site_type_symbol
 _atom_site_label
 _atom_site_symmetry_multiplicity
 _atom_site_fract_x
 _atom_site_fract_y
 _atom_site_fract_z
 _atom_site_occupancy
  Li  Li0  1  0.937982  0.197683  0.537372  1
  Li  Li1  1  0.559961  0.805262  0.974704  1
  Li  Li2  1  0.060743  0.299099  0.969023  1
  Li  Li3  1  0.057984  0.805975  0.468484  1
  Mn  Mn4  1  0.827073  0.613292  0.809952  1
  Mn  Mn5  1  0.656964  0.393864  0.692155  1
  Mn  Mn6  1  0.670637  0.881450  0.200601  1
  Mn  Mn7  1  0.817395  0.123869  0.307117  1
  Mn  Mn8  1  0.179369  0.872121  0.705932  1
  Mn  Mn9  1  0.336612  0.120030  0.799363  1
  Mn  Mn10  1  0.339664  0.599990  0.318419  1
  Mn  Mn11  1  0.178978  0.386854  0.191041  1
  B  B12  1  0.669781  0.951628  0.635578  1
  B  B13  1  0.836198  0.045248  0.859787  1
  B  B14  1  0.845149  0.535311  0.369237  1
  B  B15  1  0.667111  0.462391  0.126770  1
  B  B16  1  0.332829  0.538433  0.866141  1
  B  B17  1  0.155857  0.462832  0.635641  1
  B  B18  1  0.164282  0.957528  0.132553  1
  B  B19  1  0.324891  0.046812  0.370719  1
  O  O20  1  0.815893  0.912820  0.979549  1
  O  O21  1  0.969621  0.440045  0.753655  1
  O  O22  1  0.980191  0.942114  0.252519  1
  O  O23  1  0.839938  0.832808  0.645792  1
  O  O24  1  0.839535  0.402145  0.490596  1
  O  O25  1  0.487572  0.933252  0.756097  1
  O  O26  1  0.840373  0.342959  0.137443  1
  O  O27  1  0.649901  0.159343  0.821426  1
  O  O28  1  0.651225  0.644826  0.337114  1
  O  O29  1  0.536700  0.576461  0.762201  1
  O  O30  1  0.686871  0.090654  0.518033  1
  O  O31  1  0.673238  0.600771  0.007830  1
  O  O32  1  0.318201  0.401003  0.980209  1
  O  O33  1  0.305594  0.911112  0.486418  1
  O  O34  1  0.484754  0.442429  0.243836  1
  O  O35  1  0.332739  0.346262  0.657297  1
  O  O36  1  0.340132  0.838596  0.151138  1
  O  O37  1  0.139550  0.647924  0.835892  1
  O  O38  1  0.529372  0.075983  0.266013  1
  O  O39  1  0.166325  0.598230  0.512356  1
  O  O40  1  0.131835  0.161368  0.344917  1
  O  O41  1  0.041442  0.074342  0.749694  1
  O  O42  1  0.048838  0.567699  0.263768  1
  O  O43  1  0.168395  0.091183  0.006881  1
