# generated using pymatgen
data_MnPO4F
_symmetry_space_group_name_H-M   'P 1'
_cell_length_a   12.70208165
_cell_length_b   4.96952717
_cell_length_c   12.78953749
_cell_angle_alpha   90.00000000
_cell_angle_beta   119.87661036
_cell_angle_gamma   90.00000000
_symmetry_Int_Tables_number   1
_chemical_formula_structural   MnPO4F
_chemical_formula_sum   'Mn8 P8 O32 F8'
_cell_volume   700.02585605
_cell_formula_units_Z   8
loop_
 _symmetry_equiv_pos_site_id
 _symmetry_equiv_pos_as_xyz
  1  'x, y, z'
loop_
 _atom_site_type_symbol
 _atom_site_label
 _atom_site_symmetry_multiplicity
 _atom_site_fract_x
 _atom_site_fract_y
 _atom_site_fract_z
 _atom_site_occupancy
  Mn  Mn0  1  0.432803  0.273732  0.311631  1
  Mn  Mn1  1  0.567197  0.773732  0.188369  1
  Mn  Mn2  1  0.932958  0.227256  0.621371  1
  Mn  Mn3  1  0.067042  0.727256  0.878629  1
  Mn  Mn4  1  0.932958  0.272744  0.121371  1
  Mn  Mn5  1  0.067042  0.772744  0.378629  1
  Mn  Mn6  1  0.432803  0.226268  0.811631  1
  Mn  Mn7  1  0.567197  0.726268  0.688369  1
  P  P8  1  0.155944  0.222403  0.067749  1
  P  P9  1  0.655851  0.218224  0.586573  1
  P  P10  1  0.655851  0.281776  0.086573  1
  P  P11  1  0.844056  0.722403  0.432251  1
  P  P12  1  0.155944  0.277597  0.567749  1
  P  P13  1  0.344149  0.718224  0.913427  1
  P  P14  1  0.344149  0.781776  0.413427  1
  P  P15  1  0.844056  0.777597  0.932251  1
  O  O16  1  0.130406  0.921872  0.025926  1
  O  O17  1  0.386928  0.611545  0.340987  1
  O  O18  1  0.292299  0.259530  0.154651  1
  O  O19  1  0.635287  0.917209  0.608149  1
  O  O20  1  0.589862  0.287394  0.451060  1
  O  O21  1  0.410138  0.787394  0.048940  1
  O  O22  1  0.791213  0.272526  0.636144  1
  O  O23  1  0.911492  0.693355  0.865280  1
  O  O24  1  0.707701  0.759530  0.345349  1
  O  O25  1  0.613072  0.111545  0.159013  1
  O  O26  1  0.635287  0.582791  0.108149  1
  O  O27  1  0.879196  0.891576  0.546244  1
  O  O28  1  0.869594  0.421872  0.474074  1
  O  O29  1  0.120804  0.391576  0.953756  1
  O  O30  1  0.791213  0.227474  0.136144  1
  O  O31  1  0.911492  0.806645  0.365280  1
  O  O32  1  0.088508  0.193355  0.634720  1
  O  O33  1  0.208787  0.772526  0.863856  1
  O  O34  1  0.879196  0.608424  0.046244  1
  O  O35  1  0.130406  0.578128  0.525926  1
  O  O36  1  0.120804  0.108424  0.453756  1
  O  O37  1  0.364713  0.417209  0.891851  1
  O  O38  1  0.386928  0.888455  0.840987  1
  O  O39  1  0.292299  0.240470  0.654651  1
  O  O40  1  0.088508  0.306645  0.134720  1
  O  O41  1  0.208787  0.727474  0.363856  1
  O  O42  1  0.589862  0.212606  0.951060  1
  O  O43  1  0.410138  0.712606  0.548940  1
  O  O44  1  0.364713  0.082791  0.391851  1
  O  O45  1  0.707701  0.740470  0.845349  1
  O  O46  1  0.613072  0.388455  0.659013  1
  O  O47  1  0.869594  0.078128  0.974074  1
  F  F48  1  0.488363  0.961628  0.267916  1
  F  F49  1  0.511637  0.461628  0.232084  1
  F  F50  1  0.002370  0.038257  0.778132  1
  F  F51  1  0.997630  0.538257  0.721868  1
  F  F52  1  0.002370  0.461743  0.278132  1
  F  F53  1  0.997630  0.961743  0.221868  1
  F  F54  1  0.488363  0.538372  0.767916  1
  F  F55  1  0.511637  0.038372  0.732084  1
