# generated using pymatgen
data_Mn6O5F7
_symmetry_space_group_name_H-M   'P 1'
_cell_length_a   5.24929275
_cell_length_b   5.50112015
_cell_length_c   14.82292434
_cell_angle_alpha   88.52337826
_cell_angle_beta   83.44387398
_cell_angle_gamma   89.69571452
_symmetry_Int_Tables_number   1
_chemical_formula_structural   Mn6O5F7
_chemical_formula_sum   'Mn12 O10 F14'
_cell_volume   425.09983475
_cell_formula_units_Z   2
loop_
 _symmetry_equiv_pos_site_id
 _symmetry_equiv_pos_as_xyz
  1  'x, y, z'
loop_
 _atom_site_type_symbol
 _atom_site_label
 _atom_site_symmetry_multiplicity
 _atom_site_fract_x
 _atom_site_fract_y
 _atom_site_fract_z
 _atom_site_occupancy
  Mn  Mn0  1  0.959327  0.093597  0.999195  1
  Mn  Mn1  1  0.495469  0.847525  0.833936  1
  Mn  Mn2  1  0.040422  0.119090  0.672535  1
  Mn  Mn3  1  0.485054  0.927866  0.492820  1
  Mn  Mn4  1  0.941942  0.029144  0.327371  1
  Mn  Mn5  1  0.504856  0.108476  0.157985  1
  Mn  Mn6  1  0.991818  0.545562  0.833586  1
  Mn  Mn7  1  0.441637  0.399367  0.989329  1
  Mn  Mn8  1  0.540362  0.426705  0.336026  1
  Mn  Mn9  1  0.084106  0.492091  0.502964  1
  Mn  Mn10  1  0.542479  0.443683  0.671479  1
  Mn  Mn11  1  0.975277  0.516637  0.156538  1
  O  O12  1  0.256063  0.179576  0.076589  1
  O  O13  1  0.748337  0.232046  0.241552  1
  O  O14  1  0.131264  0.348303  0.927211  1
  O  O15  1  0.842876  0.368739  0.736129  1
  O  O16  1  0.679803  0.165696  0.406203  1
  O  O17  1  0.726657  0.315589  0.067703  1
  O  O18  1  0.264028  0.340076  0.599891  1
  O  O19  1  0.382718  0.609118  0.435952  1
  O  O20  1  0.330836  0.608508  0.767907  1
  O  O21  1  0.657507  0.601942  0.901211  1
  F  F22  1  0.370258  0.096870  0.749643  1
  F  F23  1  0.633904  0.085507  0.913279  1
  F  F24  1  0.172029  0.152014  0.421950  1
  F  F25  1  0.784529  0.301281  0.570062  1
  F  F26  1  0.248663  0.419786  0.255878  1
  F  F27  1  0.289560  0.658949  0.079568  1
  F  F28  1  0.647128  0.762552  0.599941  1
  F  F29  1  0.737827  0.715629  0.263026  1
  F  F30  1  0.151283  0.867139  0.586272  1
  F  F31  1  0.134016  0.857461  0.915590  1
  F  F32  1  0.244757  0.936809  0.244652  1
  F  F33  1  0.896511  0.701423  0.424062  1
  F  F34  1  0.797237  0.853822  0.085486  1
  F  F35  1  0.869461  0.871422  0.756476  1
