# generated using pymatgen
data_Li5(BiO3)4
_symmetry_space_group_name_H-M   'P 1'
_cell_length_a   5.51576925
_cell_length_b   10.24195922
_cell_length_c   10.76922954
_cell_angle_alpha   74.36277173
_cell_angle_beta   77.81052708
_cell_angle_gamma   79.55309402
_symmetry_Int_Tables_number   1
_chemical_formula_structural   Li5(BiO3)4
_chemical_formula_sum   'Li10 Bi8 O24'
_cell_volume   567.62839498
_cell_formula_units_Z   2
loop_
 _symmetry_equiv_pos_site_id
 _symmetry_equiv_pos_as_xyz
  1  'x, y, z'
loop_
 _atom_site_type_symbol
 _atom_site_label
 _atom_site_symmetry_multiplicity
 _atom_site_fract_x
 _atom_site_fract_y
 _atom_site_fract_z
 _atom_site_occupancy
  Li  Li0  1  0.237852  0.104127  0.267046  1
  Li  Li1  1  0.210625  0.106445  0.682332  1
  Li  Li2  1  0.202983  0.249157  0.947478  1
  Li  Li3  1  0.159088  0.609557  0.814460  1
  Li  Li4  1  0.434279  0.402452  0.624817  1
  Li  Li5  1  0.565721  0.597548  0.375183  1
  Li  Li6  1  0.840912  0.390443  0.185540  1
  Li  Li7  1  0.797017  0.750843  0.052522  1
  Li  Li8  1  0.789375  0.893555  0.317668  1
  Li  Li9  1  0.762148  0.895873  0.732954  1
  Bi  Bi10  1  0.139171  0.391072  0.408063  1
  Bi  Bi11  1  0.330719  0.574524  0.110909  1
  Bi  Bi12  1  0.270116  0.909914  0.022278  1
  Bi  Bi13  1  0.278049  0.892083  0.524531  1
  Bi  Bi14  1  0.721951  0.107917  0.475469  1
  Bi  Bi15  1  0.729884  0.090086  0.977722  1
  Bi  Bi16  1  0.669281  0.425476  0.889091  1
  Bi  Bi17  1  0.860829  0.608928  0.591937  1
  O  O18  1  0.999473  0.254223  0.331607  1
  O  O19  1  0.289591  0.438777  0.996388  1
  O  O20  1  0.356619  0.079063  0.086275  1
  O  O21  1  0.109661  0.073290  0.874941  1
  O  O22  1  0.014014  0.455696  0.762230  1
  O  O23  1  0.020050  0.964686  0.383895  1
  O  O24  1  0.359954  0.258780  0.543913  1
  O  O25  1  0.222660  0.554750  0.481085  1
  O  O26  1  0.504257  0.034519  0.366785  1
  O  O27  1  0.168173  0.740828  0.966228  1
  O  O28  1  0.483622  0.433399  0.268983  1
  O  O29  1  0.433468  0.745618  0.164304  1
  O  O30  1  0.566532  0.254382  0.835696  1
  O  O31  1  0.516378  0.566601  0.731017  1
  O  O32  1  0.831827  0.259172  0.033772  1
  O  O33  1  0.495743  0.965481  0.633215  1
  O  O34  1  0.777340  0.445250  0.518915  1
  O  O35  1  0.640046  0.741220  0.456087  1
  O  O36  1  0.979950  0.035314  0.616105  1
  O  O37  1  0.985986  0.544304  0.237770  1
  O  O38  1  0.890339  0.926710  0.125059  1
  O  O39  1  0.643381  0.920937  0.913725  1
  O  O40  1  0.710409  0.561223  0.003612  1
  O  O41  1  0.000527  0.745777  0.668393  1
