# generated using pymatgen
data_LiMn3(BO3)3
_symmetry_space_group_name_H-M   'P 1'
_cell_length_a   6.17377699
_cell_length_b   7.76735078
_cell_length_c   9.09388487
_cell_angle_alpha   111.83259603
_cell_angle_beta   107.41869087
_cell_angle_gamma   96.50833636
_symmetry_Int_Tables_number   1
_chemical_formula_structural   LiMn3(BO3)3
_chemical_formula_sum   'Li2 Mn6 B6 O18'
_cell_volume   373.61154876
_cell_formula_units_Z   2
loop_
 _symmetry_equiv_pos_site_id
 _symmetry_equiv_pos_as_xyz
  1  'x, y, z'
loop_
 _atom_site_type_symbol
 _atom_site_label
 _atom_site_symmetry_multiplicity
 _atom_site_fract_x
 _atom_site_fract_y
 _atom_site_fract_z
 _atom_site_occupancy
  Li  Li0  1  0.655640  0.329232  0.056009  1
  Li  Li1  1  0.344360  0.670768  0.943991  1
  Mn  Mn2  1  0.345613  0.602211  0.590490  1
  Mn  Mn3  1  0.299108  0.031562  0.711996  1
  Mn  Mn4  1  0.035092  0.279907  0.939497  1
  Mn  Mn5  1  0.964908  0.720093  0.060503  1
  Mn  Mn6  1  0.700892  0.968438  0.288004  1
  Mn  Mn7  1  0.654387  0.397789  0.409510  1
  B  B8  1  0.691172  0.961451  0.940496  1
  B  B9  1  0.612555  0.361693  0.725919  1
  B  B10  1  0.941936  0.695923  0.379326  1
  B  B11  1  0.058064  0.304077  0.620674  1
  B  B12  1  0.387445  0.638307  0.274081  1
  B  B13  1  0.308828  0.038549  0.059504  1
  O  O14  1  0.527003  0.889560  0.772777  1
  O  O15  1  0.382537  0.519528  0.360888  1
  O  O16  1  0.839477  0.138636  0.021760  1
  O  O17  1  0.322016  0.157002  0.975165  1
  O  O18  1  0.765724  0.430731  0.893992  1
  O  O19  1  0.107505  0.749239  0.541058  1
  O  O20  1  0.466418  0.183238  0.637758  1
  O  O21  1  0.791137  0.516422  0.287654  1
  O  O22  1  0.946458  0.827187  0.308526  1
  O  O23  1  0.053542  0.172813  0.691474  1
  O  O24  1  0.208863  0.483578  0.712346  1
  O  O25  1  0.533582  0.816762  0.362242  1
  O  O26  1  0.892495  0.250761  0.458942  1
  O  O27  1  0.234276  0.569269  0.106008  1
  O  O28  1  0.677984  0.842998  0.024835  1
  O  O29  1  0.160523  0.861364  0.978240  1
  O  O30  1  0.617463  0.480472  0.639112  1
  O  O31  1  0.472997  0.110440  0.227223  1
