# generated using pymatgen
data_Li6TiFe5O12
_symmetry_space_group_name_H-M   'P 1'
_cell_length_a   5.16302494
_cell_length_b   5.16302494
_cell_length_c   10.19668522
_cell_angle_alpha   85.92048678
_cell_angle_beta   94.07951322
_cell_angle_gamma   59.96883386
_symmetry_Int_Tables_number   1
_chemical_formula_structural   Li6TiFe5O12
_chemical_formula_sum   'Li6 Ti1 Fe5 O12'
_cell_volume   232.92512562
_cell_formula_units_Z   1
loop_
 _symmetry_equiv_pos_site_id
 _symmetry_equiv_pos_as_xyz
  1  'x, y, z'
loop_
 _atom_site_type_symbol
 _atom_site_label
 _atom_site_symmetry_multiplicity
 _atom_site_fract_x
 _atom_site_fract_y
 _atom_site_fract_z
 _atom_site_occupancy
  Li  Li0  1  0.288044  0.057189  0.756781  1
  Li  Li1  1  0.948076  0.719399  0.758193  1
  Li  Li2  1  0.382000  0.610398  0.245066  1
  Li  Li3  1  0.610398  0.382000  0.754934  1
  Li  Li4  1  0.057189  0.288044  0.243219  1
  Li  Li5  1  0.719399  0.948076  0.241807  1
  Ti  Ti6  1  0.004063  0.004063  0.000000  1
  Fe  Fe7  1  0.500154  0.500154  0.500000  1
  Fe  Fe8  1  0.332654  0.332654  0.000000  1
  Fe  Fe9  1  0.664512  0.664512  0.000000  1
  Fe  Fe10  1  0.833582  0.833582  0.500000  1
  Fe  Fe11  1  0.166473  0.166473  0.500000  1
  O  O12  1  0.133969  0.867627  0.387874  1
  O  O13  1  0.290842  0.728204  0.886859  1
  O  O14  1  0.202101  0.462769  0.614766  1
  O  O15  1  0.534933  0.797961  0.613334  1
  O  O16  1  0.948035  0.360639  0.885887  1
  O  O17  1  0.651144  0.023924  0.889910  1
  O  O18  1  0.360639  0.948035  0.114113  1
  O  O19  1  0.023924  0.651144  0.110090  1
  O  O20  1  0.462769  0.202101  0.385234  1
  O  O21  1  0.797961  0.534933  0.386666  1
  O  O22  1  0.728204  0.290842  0.113141  1
  O  O23  1  0.867627  0.133969  0.612126  1
