# generated using pymatgen
data_Mn6OF11
_symmetry_space_group_name_H-M   'P 1'
_cell_length_a   4.96430523
_cell_length_b   16.22087691
_cell_length_c   7.65471710
_cell_angle_alpha   90.00000000
_cell_angle_beta   129.71806276
_cell_angle_gamma   90.00000000
_symmetry_Int_Tables_number   1
_chemical_formula_structural   Mn6OF11
_chemical_formula_sum   'Mn12 O2 F22'
_cell_volume   474.13299201
_cell_formula_units_Z   2
loop_
 _symmetry_equiv_pos_site_id
 _symmetry_equiv_pos_as_xyz
  1  'x, y, z'
loop_
 _atom_site_type_symbol
 _atom_site_label
 _atom_site_symmetry_multiplicity
 _atom_site_fract_x
 _atom_site_fract_y
 _atom_site_fract_z
 _atom_site_occupancy
  Mn  Mn0  1  0.846471  0.668445  0.856330  1
  Mn  Mn1  1  0.159591  0.495953  0.170707  1
  Mn  Mn2  1  0.831722  0.329099  0.812912  1
  Mn  Mn3  1  0.825241  0.001060  0.830765  1
  Mn  Mn4  1  0.153469  0.828120  0.167164  1
  Mn  Mn5  1  0.175515  0.167930  0.169755  1
  Mn  Mn6  1  0.175515  0.832070  0.669755  1
  Mn  Mn7  1  0.153469  0.171880  0.667164  1
  Mn  Mn8  1  0.159591  0.504047  0.670707  1
  Mn  Mn9  1  0.846471  0.331555  0.356330  1
  Mn  Mn10  1  0.831722  0.670901  0.312912  1
  Mn  Mn11  1  0.825241  0.998940  0.330765  1
  O  O12  1  0.880550  0.718133  0.089532  1
  O  O13  1  0.880550  0.281867  0.589532  1
  F  F14  1  0.666120  0.557216  0.890252  1
  F  F15  1  0.659867  0.891664  0.894332  1
  F  F16  1  0.672609  0.223139  0.885368  1
  F  F17  1  0.875024  0.384502  0.125730  1
  F  F18  1  0.881414  0.058033  0.110290  1
  F  F19  1  0.340104  0.393914  0.608310  1
  F  F20  1  0.109102  0.556722  0.391881  1
  F  F21  1  0.348521  0.720082  0.607876  1
  F  F22  1  0.131024  0.890641  0.397316  1
  F  F23  1  0.330097  0.061198  0.608642  1
  F  F24  1  0.113556  0.228488  0.382836  1
  F  F25  1  0.666120  0.442784  0.390252  1
  F  F26  1  0.875024  0.615498  0.625730  1
  F  F27  1  0.672609  0.776861  0.385368  1
  F  F28  1  0.659867  0.108336  0.394332  1
  F  F29  1  0.881414  0.941967  0.610290  1
  F  F30  1  0.109102  0.443278  0.891881  1
  F  F31  1  0.113556  0.771512  0.882836  1
  F  F32  1  0.340104  0.606086  0.108310  1
  F  F33  1  0.348521  0.279918  0.107876  1
  F  F34  1  0.131024  0.109359  0.897316  1
  F  F35  1  0.330097  0.938802  0.108642  1
