# generated using pymatgen
data_Cs4P2PdSe8
_symmetry_space_group_name_H-M   'P 1'
_cell_length_a   7.72958164
_cell_length_b   13.88428273
_cell_length_c   10.32185304
_cell_angle_alpha   90.00000000
_cell_angle_beta   93.45825786
_cell_angle_gamma   90.00000000
_symmetry_Int_Tables_number   1
_chemical_formula_structural   Cs4P2PdSe8
_chemical_formula_sum   'Cs8 P4 Pd2 Se16'
_cell_volume   1105.72095822
_cell_formula_units_Z   2
loop_
 _symmetry_equiv_pos_site_id
 _symmetry_equiv_pos_as_xyz
  1  'x, y, z'
loop_
 _atom_site_type_symbol
 _atom_site_label
 _atom_site_symmetry_multiplicity
 _atom_site_fract_x
 _atom_site_fract_y
 _atom_site_fract_z
 _atom_site_occupancy
  Cs  Cs0  1  0.677217  0.130736  0.177628  1
  Cs  Cs1  1  0.322783  0.630736  0.322372  1
  Cs  Cs2  1  0.322783  0.869264  0.822372  1
  Cs  Cs3  1  0.677217  0.369264  0.677628  1
  Cs  Cs4  1  0.227760  0.345607  0.036761  1
  Cs  Cs5  1  0.772240  0.845607  0.463239  1
  Cs  Cs6  1  0.772240  0.654393  0.963239  1
  Cs  Cs7  1  0.227760  0.154393  0.536761  1
  P  P8  1  0.737810  0.420055  0.258658  1
  P  P9  1  0.262190  0.920055  0.241342  1
  P  P10  1  0.262190  0.579945  0.741342  1
  P  P11  1  0.737810  0.079945  0.758658  1
  Pd  Pd12  1  0.000000  0.000000  0.000000  1
  Pd  Pd13  1  0.000000  0.500000  0.500000  1
  Se  Se14  1  0.186634  0.072257  0.176339  1
  Se  Se15  1  0.813366  0.572257  0.323661  1
  Se  Se16  1  0.813366  0.927743  0.823661  1
  Se  Se17  1  0.186634  0.427743  0.676339  1
  Se  Se18  1  0.737237  0.394375  0.049430  1
  Se  Se19  1  0.262763  0.894375  0.450570  1
  Se  Se20  1  0.262763  0.605625  0.950570  1
  Se  Se21  1  0.737237  0.105625  0.549430  1
  Se  Se22  1  0.972336  0.146463  0.862529  1
  Se  Se23  1  0.027664  0.646463  0.637471  1
  Se  Se24  1  0.027664  0.853537  0.137471  1
  Se  Se25  1  0.972336  0.353537  0.362529  1
  Se  Se26  1  0.494167  0.374236  0.337590  1
  Se  Se27  1  0.505833  0.874236  0.162410  1
  Se  Se28  1  0.505833  0.625764  0.662410  1
  Se  Se29  1  0.494167  0.125764  0.837590  1
