# generated using pymatgen
data_Tm2MgOs
_symmetry_space_group_name_H-M   'P 1'
_cell_length_a   4.93698476
_cell_length_b   4.93698476
_cell_length_c   4.93698476
_cell_angle_alpha   60.00000000
_cell_angle_beta   60.00000000
_cell_angle_gamma   60.00000000
_symmetry_Int_Tables_number   1
_chemical_formula_structural   Tm2MgOs
_chemical_formula_sum   'Tm2 Mg1 Os1'
_cell_volume   85.08840074
_cell_formula_units_Z   1
loop_
 _symmetry_equiv_pos_site_id
 _symmetry_equiv_pos_as_xyz
  1  'x, y, z'
loop_
 _atom_site_type_symbol
 _atom_site_label
 _atom_site_symmetry_multiplicity
 _atom_site_fract_x
 _atom_site_fract_y
 _atom_site_fract_z
 _atom_site_occupancy
  Tm  Tm0  1  0.750000  0.750000  0.750000  1
  Tm  Tm1  1  0.250000  0.250000  0.250000  1
  Mg  Mg2  1  0.500000  0.500000  0.500000  1
  Os  Os3  1  0.000000  0.000000  0.000000  1
