# generated using pymatgen
data_Li2Mn3(BO3)3
_symmetry_space_group_name_H-M   'P 1'
_cell_length_a   8.23542052
_cell_length_b   6.34833981
_cell_length_c   8.29182484
_cell_angle_alpha   90.00000000
_cell_angle_beta   119.59921199
_cell_angle_gamma   90.00000000
_symmetry_Int_Tables_number   1
_chemical_formula_structural   Li2Mn3(BO3)3
_chemical_formula_sum   'Li4 Mn6 B6 O18'
_cell_volume   376.93504001
_cell_formula_units_Z   2
loop_
 _symmetry_equiv_pos_site_id
 _symmetry_equiv_pos_as_xyz
  1  'x, y, z'
loop_
 _atom_site_type_symbol
 _atom_site_label
 _atom_site_symmetry_multiplicity
 _atom_site_fract_x
 _atom_site_fract_y
 _atom_site_fract_z
 _atom_site_occupancy
  Li  Li0  1  0.723665  0.500000  0.700499  1
  Li  Li1  1  0.976717  0.000000  0.275841  1
  Li  Li2  1  0.302102  0.000000  0.022266  1
  Li  Li3  1  0.302756  0.500000  0.019524  1
  Mn  Mn4  1  0.637419  0.751449  0.987358  1
  Mn  Mn5  1  0.637419  0.248551  0.987358  1
  Mn  Mn6  1  0.358251  0.750352  0.379364  1
  Mn  Mn7  1  0.358251  0.249648  0.379364  1
  Mn  Mn8  1  0.002146  0.250743  0.630135  1
  Mn  Mn9  1  0.002146  0.749257  0.630135  1
  B  B10  1  0.341356  0.500000  0.672893  1
  B  B11  1  0.321248  0.000000  0.667497  1
  B  B12  1  0.663670  0.500000  0.335149  1
  B  B13  1  0.656414  0.000000  0.323853  1
  B  B14  1  0.008349  0.250638  0.000383  1
  B  B15  1  0.008349  0.749362  0.000383  1
  O  O16  1  0.905459  0.269044  0.809310  1
  O  O17  1  0.905459  0.730956  0.809310  1
  O  O18  1  0.536258  0.500000  0.787166  1
  O  O19  1  0.855126  0.500000  0.458978  1
  O  O20  1  0.509320  0.000000  0.781640  1
  O  O21  1  0.849341  0.000000  0.437822  1
  O  O22  1  0.918263  0.232770  0.101903  1
  O  O23  1  0.918263  0.767230  0.101903  1
  O  O24  1  0.224581  0.500000  0.749089  1
  O  O25  1  0.547800  0.500000  0.413177  1
  O  O26  1  0.199232  0.000000  0.741602  1
  O  O27  1  0.533320  0.000000  0.391495  1
  O  O28  1  0.265907  0.500000  0.482385  1
  O  O29  1  0.243497  0.000000  0.473887  1
  O  O30  1  0.590431  0.500000  0.145460  1
  O  O31  1  0.584438  0.000000  0.132708  1
  O  O32  1  0.203438  0.749891  0.089010  1
  O  O33  1  0.203438  0.250109  0.089010  1
