# generated using pymatgen
data_PmSi3
_symmetry_space_group_name_H-M   'P 1'
_cell_length_a   6.09106470
_cell_length_b   6.09106470
_cell_length_c   4.76531468
_cell_angle_alpha   90.00000000
_cell_angle_beta   90.00000000
_cell_angle_gamma   120.00000000
_symmetry_Int_Tables_number   1
_chemical_formula_structural   PmSi3
_chemical_formula_sum   'Pm2 Si6'
_cell_volume   153.11179301
_cell_formula_units_Z   2
loop_
 _symmetry_equiv_pos_site_id
 _symmetry_equiv_pos_as_xyz
  1  'x, y, z'
loop_
 _atom_site_type_symbol
 _atom_site_label
 _atom_site_symmetry_multiplicity
 _atom_site_fract_x
 _atom_site_fract_y
 _atom_site_fract_z
 _atom_site_occupancy
  Pm  Pm0  1  0.666667  0.333333  0.250000  1
  Pm  Pm1  1  0.333333  0.666667  0.750000  1
  Si  Si2  1  0.864370  0.135630  0.750000  1
  Si  Si3  1  0.271260  0.135630  0.750000  1
  Si  Si4  1  0.864370  0.728740  0.750000  1
  Si  Si5  1  0.135630  0.864370  0.250000  1
  Si  Si6  1  0.728740  0.864370  0.250000  1
  Si  Si7  1  0.135630  0.271260  0.250000  1
