# generated using pymatgen
data_LiV6O7F5
_symmetry_space_group_name_H-M   'P 1'
_cell_length_a   5.70326524
_cell_length_b   5.72894598
_cell_length_c   7.71228906
_cell_angle_alpha   69.54504579
_cell_angle_beta   69.93645483
_cell_angle_gamma   70.23818849
_symmetry_Int_Tables_number   1
_chemical_formula_structural   LiV6O7F5
_chemical_formula_sum   'Li1 V6 O7 F5'
_cell_volume   214.84659681
_cell_formula_units_Z   1
loop_
 _symmetry_equiv_pos_site_id
 _symmetry_equiv_pos_as_xyz
  1  'x, y, z'
loop_
 _atom_site_type_symbol
 _atom_site_label
 _atom_site_symmetry_multiplicity
 _atom_site_fract_x
 _atom_site_fract_y
 _atom_site_fract_z
 _atom_site_occupancy
  Li  Li0  1  0.579539  0.086075  0.419806  1
  V  V1  1  0.294830  0.325130  0.145661  1
  V  V2  1  0.667655  0.657282  0.313084  1
  V  V3  1  0.013792  0.998946  0.506429  1
  V  V4  1  0.327721  0.348455  0.690157  1
  V  V5  1  0.678408  0.693505  0.843949  1
  V  V6  1  0.022401  0.971941  0.997561  1
  O  O7  1  0.772886  0.775629  0.033830  1
  O  O8  1  0.945843  0.353426  0.332930  1
  O  O9  1  0.374065  0.977881  0.335119  1
  O  O10  1  0.032393  0.644674  0.671274  1
  O  O11  1  0.636005  0.053954  0.653936  1
  O  O12  1  0.220958  0.218749  0.964784  1
  O  O13  1  0.316595  0.680364  0.996686  1
  F  F14  1  0.416062  0.435719  0.372860  1
  F  F15  1  0.901468  0.889421  0.301351  1
  F  F16  1  0.109132  0.105929  0.701080  1
  F  F17  1  0.569813  0.582812  0.624393  1
  F  F18  1  0.703798  0.292139  0.003425  1
