# generated using pymatgen
data_Li8TbO6
_symmetry_space_group_name_H-M   'P 1'
_cell_length_a   6.30715780
_cell_length_b   6.30715780
_cell_length_c   6.30715780
_cell_angle_alpha   53.15338515
_cell_angle_beta   53.15338515
_cell_angle_gamma   53.15338515
_symmetry_Int_Tables_number   1
_chemical_formula_structural   Li8TbO6
_chemical_formula_sum   'Li8 Tb1 O6'
_cell_volume   148.95706258
_cell_formula_units_Z   1
loop_
 _symmetry_equiv_pos_site_id
 _symmetry_equiv_pos_as_xyz
  1  'x, y, z'
loop_
 _atom_site_type_symbol
 _atom_site_label
 _atom_site_symmetry_multiplicity
 _atom_site_fract_x
 _atom_site_fract_y
 _atom_site_fract_z
 _atom_site_occupancy
  Li  Li0  1  0.646560  0.646560  0.646560  1
  Li  Li1  1  0.102132  0.773464  0.492802  1
  Li  Li2  1  0.492802  0.102132  0.773464  1
  Li  Li3  1  0.773464  0.492802  0.102132  1
  Li  Li4  1  0.897868  0.226536  0.507198  1
  Li  Li5  1  0.507198  0.897868  0.226536  1
  Li  Li6  1  0.353440  0.353440  0.353440  1
  Li  Li7  1  0.226536  0.507198  0.897868  1
  Tb  Tb8  1  0.000000  0.000000  0.000000  1
  O  O9  1  0.101495  0.398336  0.757183  1
  O  O10  1  0.601664  0.242817  0.898505  1
  O  O11  1  0.898505  0.601664  0.242817  1
  O  O12  1  0.757183  0.101495  0.398336  1
  O  O13  1  0.398336  0.757183  0.101495  1
  O  O14  1  0.242817  0.898505  0.601664  1
