# generated using pymatgen
data_V3O5F
_symmetry_space_group_name_H-M   'P 1'
_cell_length_a   4.65614837
_cell_length_b   5.55605528
_cell_length_c   7.50171978
_cell_angle_alpha   84.50990789
_cell_angle_beta   89.27507321
_cell_angle_gamma   88.85874132
_symmetry_Int_Tables_number   1
_chemical_formula_structural   V3O5F
_chemical_formula_sum   'V6 O10 F2'
_cell_volume   193.12830490
_cell_formula_units_Z   2
loop_
 _symmetry_equiv_pos_site_id
 _symmetry_equiv_pos_as_xyz
  1  'x, y, z'
loop_
 _atom_site_type_symbol
 _atom_site_label
 _atom_site_symmetry_multiplicity
 _atom_site_fract_x
 _atom_site_fract_y
 _atom_site_fract_z
 _atom_site_occupancy
  V  V0  1  0.518834  0.678158  0.340566  1
  V  V1  1  0.481166  0.321842  0.659434  1
  V  V2  1  0.500000  0.000000  0.000000  1
  V  V3  1  0.983566  0.145980  0.336328  1
  V  V4  1  0.000000  0.500000  0.000000  1
  V  V5  1  0.016434  0.854020  0.663672  1
  O  O6  1  0.798589  0.193738  0.101323  1
  O  O7  1  0.796524  0.861082  0.437993  1
  O  O8  1  0.697386  0.040951  0.762147  1
  O  O9  1  0.698228  0.366479  0.437648  1
  O  O10  1  0.691466  0.695342  0.108508  1
  O  O11  1  0.302614  0.959049  0.237853  1
  O  O12  1  0.308534  0.304658  0.891492  1
  O  O13  1  0.301772  0.633521  0.562352  1
  O  O14  1  0.201411  0.806262  0.898677  1
  O  O15  1  0.203476  0.138918  0.562007  1
  F  F16  1  0.797035  0.538948  0.760266  1
  F  F17  1  0.202965  0.461052  0.239734  1
