# generated using pymatgen
data_CoSn(PO4)2
_symmetry_space_group_name_H-M   'P 1'
_cell_length_a   4.96887614
_cell_length_b   6.05818653
_cell_length_c   10.07075800
_cell_angle_alpha   90.00000000
_cell_angle_beta   90.75974171
_cell_angle_gamma   90.00000000
_symmetry_Int_Tables_number   1
_chemical_formula_structural   CoSn(PO4)2
_chemical_formula_sum   'Co2 Sn2 P4 O16'
_cell_volume   303.12711804
_cell_formula_units_Z   2
loop_
 _symmetry_equiv_pos_site_id
 _symmetry_equiv_pos_as_xyz
  1  'x, y, z'
loop_
 _atom_site_type_symbol
 _atom_site_label
 _atom_site_symmetry_multiplicity
 _atom_site_fract_x
 _atom_site_fract_y
 _atom_site_fract_z
 _atom_site_occupancy
  Co  Co0  1  0.956584  0.250000  0.274957  1
  Co  Co1  1  0.043416  0.750000  0.725043  1
  Sn  Sn2  1  0.464594  0.750000  0.223220  1
  Sn  Sn3  1  0.535406  0.250000  0.776780  1
  P  P4  1  0.416408  0.250000  0.097589  1
  P  P5  1  0.904402  0.750000  0.405162  1
  P  P6  1  0.095598  0.250000  0.594838  1
  P  P7  1  0.583592  0.750000  0.902411  1
  O  O8  1  0.674771  0.750000  0.050696  1
  O  O9  1  0.719604  0.250000  0.112366  1
  O  O10  1  0.274154  0.048563  0.168506  1
  O  O11  1  0.274154  0.451437  0.168506  1
  O  O12  1  0.756112  0.553092  0.329521  1
  O  O13  1  0.756112  0.946908  0.329521  1
  O  O14  1  0.210342  0.750000  0.379699  1
  O  O15  1  0.150398  0.250000  0.447506  1
  O  O16  1  0.849602  0.750000  0.552494  1
  O  O17  1  0.789658  0.250000  0.620301  1
  O  O18  1  0.243888  0.053092  0.670479  1
  O  O19  1  0.243888  0.446908  0.670479  1
  O  O20  1  0.725846  0.548563  0.831494  1
  O  O21  1  0.725846  0.951437  0.831494  1
  O  O22  1  0.280396  0.750000  0.887634  1
  O  O23  1  0.325229  0.250000  0.949304  1
