# generated using pymatgen
data_LiCo2O2F3
_symmetry_space_group_name_H-M   'P 1'
_cell_length_a   5.29636658
_cell_length_b   5.29636658
_cell_length_c   10.35343709
_cell_angle_alpha   90.00000000
_cell_angle_beta   90.00000000
_cell_angle_gamma   139.69691268
_symmetry_Int_Tables_number   1
_chemical_formula_structural   LiCo2O2F3
_chemical_formula_sum   'Li2 Co4 O4 F6'
_cell_volume   187.85872163
_cell_formula_units_Z   2
loop_
 _symmetry_equiv_pos_site_id
 _symmetry_equiv_pos_as_xyz
  1  'x, y, z'
loop_
 _atom_site_type_symbol
 _atom_site_label
 _atom_site_symmetry_multiplicity
 _atom_site_fract_x
 _atom_site_fract_y
 _atom_site_fract_z
 _atom_site_occupancy
  Li  Li0  1  0.827027  0.172973  0.250000  1
  Li  Li1  1  0.172973  0.827027  0.750000  1
  Co  Co2  1  0.853647  0.146353  0.557849  1
  Co  Co3  1  0.853647  0.146353  0.942151  1
  Co  Co4  1  0.146353  0.853647  0.057849  1
  Co  Co5  1  0.146353  0.853647  0.442151  1
  O  O6  1  0.675843  0.324157  0.453304  1
  O  O7  1  0.675843  0.324157  0.046696  1
  O  O8  1  0.324157  0.675843  0.953304  1
  O  O9  1  0.324157  0.675843  0.546696  1
  F  F10  1  0.960229  0.039771  0.118046  1
  F  F11  1  0.960229  0.039771  0.381954  1
  F  F12  1  0.763010  0.236990  0.750000  1
  F  F13  1  0.236990  0.763010  0.250000  1
  F  F14  1  0.039771  0.960229  0.618046  1
  F  F15  1  0.039771  0.960229  0.881954  1
