# generated using pymatgen
data_CsCr5Te8
_symmetry_space_group_name_H-M   'P 1'
_cell_length_a   10.47315064
_cell_length_b   10.47315064
_cell_length_c   9.68912155
_cell_angle_alpha   76.20253085
_cell_angle_beta   103.79746915
_cell_angle_gamma   157.74172823
_symmetry_Int_Tables_number   1
_chemical_formula_structural   CsCr5Te8
_chemical_formula_sum   'Cs1 Cr5 Te8'
_cell_volume   390.48586619
_cell_formula_units_Z   1
loop_
 _symmetry_equiv_pos_site_id
 _symmetry_equiv_pos_as_xyz
  1  'x, y, z'
loop_
 _atom_site_type_symbol
 _atom_site_label
 _atom_site_symmetry_multiplicity
 _atom_site_fract_x
 _atom_site_fract_y
 _atom_site_fract_z
 _atom_site_occupancy
  Cs  Cs0  1  0.500000  0.500000  0.000000  1
  Cr  Cr1  1  0.340261  0.659739  0.511578  1
  Cr  Cr2  1  0.659739  0.340261  0.488422  1
  Cr  Cr3  1  0.296142  0.703858  0.169128  1
  Cr  Cr4  1  0.703858  0.296142  0.830872  1
  Cr  Cr5  1  0.000000  1.000000  0.500000  1
  Te  Te6  1  0.239378  0.760622  0.658133  1
  Te  Te7  1  0.760622  0.239378  0.341867  1
  Te  Te8  1  0.572583  0.427417  0.659501  1
  Te  Te9  1  0.427417  0.572583  0.340499  1
  Te  Te10  1  0.090563  0.909437  0.335027  1
  Te  Te11  1  0.909437  0.090563  0.664973  1
  Te  Te12  1  0.171942  0.828058  0.991742  1
  Te  Te13  1  0.828058  0.171942  0.008258  1
