# generated using pymatgen
data_Li5Mn6(BO3)6
_symmetry_space_group_name_H-M   'P 1'
_cell_length_a   14.58509877
_cell_length_b   14.58509877
_cell_length_c   8.33426733
_cell_angle_alpha   89.84628229
_cell_angle_beta   90.15371771
_cell_angle_gamma   154.77305694
_symmetry_Int_Tables_number   1
_chemical_formula_structural   Li5Mn6(BO3)6
_chemical_formula_sum   'Li10 Mn12 B12 O36'
_cell_volume   755.61888621
_cell_formula_units_Z   2
loop_
 _symmetry_equiv_pos_site_id
 _symmetry_equiv_pos_as_xyz
  1  'x, y, z'
loop_
 _atom_site_type_symbol
 _atom_site_label
 _atom_site_symmetry_multiplicity
 _atom_site_fract_x
 _atom_site_fract_y
 _atom_site_fract_z
 _atom_site_occupancy
  Li  Li0  1  0.754742  0.245258  0.711433  1
  Li  Li1  1  0.570605  0.429395  0.663946  1
  Li  Li2  1  0.070337  0.929663  0.657461  1
  Li  Li3  1  0.424709  0.575291  0.631409  1
  Li  Li4  1  0.924875  0.075125  0.633545  1
  Li  Li5  1  0.004779  0.995221  0.212428  1
  Li  Li6  1  0.320147  0.679853  0.162010  1
  Li  Li7  1  0.820911  0.179089  0.158653  1
  Li  Li8  1  0.175180  0.824820  0.134031  1
  Li  Li9  1  0.674460  0.325540  0.131069  1
  Mn  Mn10  1  0.744527  0.750999  0.874497  1
  Mn  Mn11  1  0.249001  0.255473  0.874497  1
  Mn  Mn12  1  0.588376  0.907450  0.819196  1
  Mn  Mn13  1  0.092550  0.411624  0.819196  1
  Mn  Mn14  1  0.409397  0.082200  0.805932  1
  Mn  Mn15  1  0.917800  0.590603  0.805932  1
  Mn  Mn16  1  0.998543  0.505109  0.374415  1
  Mn  Mn17  1  0.494891  0.001457  0.374415  1
  Mn  Mn18  1  0.837854  0.656870  0.319537  1
  Mn  Mn19  1  0.343130  0.162146  0.319537  1
  Mn  Mn20  1  0.660664  0.833083  0.305243  1
  Mn  Mn21  1  0.166917  0.339336  0.305243  1
  B  B22  1  0.916467  0.083533  0.998340  1
  B  B23  1  0.414444  0.585556  0.995457  1
  B  B24  1  0.083795  0.916205  0.998088  1
  B  B25  1  0.585265  0.414735  0.991527  1
  B  B26  1  0.244623  0.244824  0.507542  1
  B  B27  1  0.755176  0.755377  0.507542  1
  B  B28  1  0.834444  0.165556  0.497139  1
  B  B29  1  0.666511  0.333489  0.497032  1
  B  B30  1  0.164424  0.835576  0.497191  1
  B  B31  1  0.334679  0.665321  0.491949  1
  B  B32  1  0.505475  0.005572  0.007656  1
  B  B33  1  0.994428  0.494525  0.007656  1
  O  O34  1  0.034815  0.965185  0.988741  1
  O  O35  1  0.868157  0.131843  0.980622  1
  O  O36  1  0.365655  0.634345  0.975768  1
  O  O37  1  0.537500  0.462500  0.962384  1
  O  O38  1  0.945572  0.054428  0.863112  1
  O  O39  1  0.443752  0.556248  0.860557  1
  O  O40  1  0.615566  0.384434  0.860742  1
  O  O41  1  0.999996  0.459996  0.858482  1
  O  O42  1  0.540004  0.000004  0.858482  1
  O  O43  1  0.110669  0.889331  0.859993  1
  O  O44  1  0.854633  0.145367  0.649381  1
  O  O45  1  0.183817  0.816183  0.648857  1
  O  O46  1  0.687655  0.312345  0.647739  1
  O  O47  1  0.353451  0.646549  0.645545  1
  O  O48  1  0.277961  0.222467  0.646047  1
  O  O49  1  0.777533  0.722039  0.646047  1
  O  O50  1  0.199797  0.298036  0.522138  1
  O  O51  1  0.701964  0.800203  0.522138  1
  O  O52  1  0.785487  0.214513  0.486048  1
  O  O53  1  0.617966  0.382034  0.480074  1
  O  O54  1  0.115884  0.884116  0.475797  1
  O  O55  1  0.286810  0.713190  0.464555  1
  O  O56  1  0.194145  0.805855  0.363327  1
  O  O57  1  0.695323  0.304677  0.360856  1
  O  O58  1  0.862070  0.137930  0.360664  1
  O  O59  1  0.364286  0.635714  0.359519  1
  O  O60  1  0.251501  0.211573  0.358280  1
  O  O61  1  0.788427  0.748499  0.358280  1
  O  O62  1  0.937351  0.062649  0.150321  1
  O  O63  1  0.434310  0.565690  0.145943  1
  O  O64  1  0.104773  0.895227  0.148484  1
  O  O65  1  0.603369  0.396631  0.146611  1
  O  O66  1  0.528373  0.972759  0.146224  1
  O  O67  1  0.027241  0.471627  0.146224  1
  O  O68  1  0.951572  0.549673  0.022419  1
  O  O69  1  0.450327  0.048428  0.022419  1
