# generated using pymatgen
data_Li3V2(PO4)3
_symmetry_space_group_name_H-M   'P 1'
_cell_length_a   9.03830178
_cell_length_b   9.03830178
_cell_length_c   9.03830178
_cell_angle_alpha   55.98754150
_cell_angle_beta   55.98754150
_cell_angle_gamma   55.98754150
_symmetry_Int_Tables_number   1
_chemical_formula_structural   Li3V2(PO4)3
_chemical_formula_sum   'Li6 V4 P6 O24'
_cell_volume   473.55556465
_cell_formula_units_Z   2
loop_
 _symmetry_equiv_pos_site_id
 _symmetry_equiv_pos_as_xyz
  1  'x, y, z'
loop_
 _atom_site_type_symbol
 _atom_site_label
 _atom_site_symmetry_multiplicity
 _atom_site_fract_x
 _atom_site_fract_y
 _atom_site_fract_z
 _atom_site_occupancy
  Li  Li0  1  0.080157  0.733272  0.333862  1
  Li  Li1  1  0.333862  0.080157  0.733272  1
  Li  Li2  1  0.733272  0.333862  0.080157  1
  Li  Li3  1  0.266728  0.666138  0.919843  1
  Li  Li4  1  0.666138  0.919843  0.266728  1
  Li  Li5  1  0.919843  0.266728  0.666138  1
  V  V6  1  0.350375  0.350375  0.350375  1
  V  V7  1  0.855164  0.855164  0.855164  1
  V  V8  1  0.144836  0.144836  0.144836  1
  V  V9  1  0.649625  0.649625  0.649625  1
  P  P10  1  0.752462  0.038861  0.458285  1
  P  P11  1  0.038861  0.458285  0.752462  1
  P  P12  1  0.458285  0.752462  0.038861  1
  P  P13  1  0.541715  0.247538  0.961139  1
  P  P14  1  0.961139  0.541715  0.247538  1
  P  P15  1  0.247538  0.961139  0.541715  1
  O  O16  1  0.790040  0.845617  0.456497  1
  O  O17  1  0.537146  0.166212  0.493898  1
  O  O18  1  0.166212  0.493898  0.537146  1
  O  O19  1  0.845617  0.456497  0.790040  1
  O  O20  1  0.456497  0.790040  0.845617  1
  O  O21  1  0.811664  0.995785  0.608957  1
  O  O22  1  0.138362  0.254548  0.875100  1
  O  O23  1  0.995785  0.608957  0.811664  1
  O  O24  1  0.493898  0.537146  0.166212  1
  O  O25  1  0.254548  0.875100  0.138362  1
  O  O26  1  0.608957  0.811664  0.995785  1
  O  O27  1  0.875100  0.138362  0.254548  1
  O  O28  1  0.124900  0.861638  0.745452  1
  O  O29  1  0.391043  0.188336  0.004215  1
  O  O30  1  0.745452  0.124900  0.861638  1
  O  O31  1  0.506102  0.462854  0.833788  1
  O  O32  1  0.004215  0.391043  0.188336  1
  O  O33  1  0.861638  0.745452  0.124900  1
  O  O34  1  0.188336  0.004215  0.391043  1
  O  O35  1  0.543503  0.209960  0.154383  1
  O  O36  1  0.154383  0.543503  0.209960  1
  O  O37  1  0.833788  0.506102  0.462854  1
  O  O38  1  0.462854  0.833788  0.506102  1
  O  O39  1  0.209960  0.154383  0.543503  1
