# generated using pymatgen
data_Li2MnP3O10
_symmetry_space_group_name_H-M   'P 1'
_cell_length_a   4.67430208
_cell_length_b   8.61334285
_cell_length_c   9.36211759
_cell_angle_alpha   90.00000000
_cell_angle_beta   97.96299097
_cell_angle_gamma   90.00000000
_symmetry_Int_Tables_number   1
_chemical_formula_structural   Li2MnP3O10
_chemical_formula_sum   'Li4 Mn2 P6 O20'
_cell_volume   373.29718023
_cell_formula_units_Z   2
loop_
 _symmetry_equiv_pos_site_id
 _symmetry_equiv_pos_as_xyz
  1  'x, y, z'
loop_
 _atom_site_type_symbol
 _atom_site_label
 _atom_site_symmetry_multiplicity
 _atom_site_fract_x
 _atom_site_fract_y
 _atom_site_fract_z
 _atom_site_occupancy
  Li  Li0  1  0.960189  0.920813  0.623817  1
  Li  Li1  1  0.960189  0.579187  0.623817  1
  Li  Li2  1  0.039811  0.420813  0.376183  1
  Li  Li3  1  0.039811  0.079187  0.376183  1
  Mn  Mn4  1  0.000000  0.000000  0.000000  1
  Mn  Mn5  1  0.000000  0.500000  0.000000  1
  P  P6  1  0.670498  0.750000  0.169741  1
  P  P7  1  0.599813  0.250000  0.527461  1
  P  P8  1  0.468201  0.250000  0.137448  1
  P  P9  1  0.531799  0.750000  0.862552  1
  P  P10  1  0.400187  0.750000  0.472539  1
  P  P11  1  0.329502  0.250000  0.830259  1
  O  O12  1  0.851095  0.898181  0.160190  1
  O  O13  1  0.851095  0.601819  0.160190  1
  O  O14  1  0.747583  0.250000  0.236014  1
  O  O15  1  0.773717  0.397550  0.528814  1
  O  O16  1  0.773717  0.102450  0.528814  1
  O  O17  1  0.689733  0.750000  0.567028  1
  O  O18  1  0.718916  0.601944  0.861998  1
  O  O19  1  0.718916  0.898056  0.861998  1
  O  O20  1  0.423498  0.750000  0.027246  1
  O  O21  1  0.503040  0.250000  0.705742  1
  O  O22  1  0.496960  0.750000  0.294258  1
  O  O23  1  0.576502  0.250000  0.972754  1
  O  O24  1  0.281084  0.101944  0.138002  1
  O  O25  1  0.281084  0.398056  0.138002  1
  O  O26  1  0.310267  0.250000  0.432972  1
  O  O27  1  0.226283  0.897550  0.471186  1
  O  O28  1  0.226283  0.602450  0.471186  1
  O  O29  1  0.252417  0.750000  0.763986  1
  O  O30  1  0.148905  0.398181  0.839810  1
  O  O31  1  0.148905  0.101819  0.839810  1
