# generated using pymatgen
data_LiTi3Nb(CuO4)3
_symmetry_space_group_name_H-M   'P 1'
_cell_length_a   6.45253059
_cell_length_b   6.47876905
_cell_length_c   6.52149661
_cell_angle_alpha   109.37127753
_cell_angle_beta   109.38043634
_cell_angle_gamma   109.28966869
_symmetry_Int_Tables_number   1
_chemical_formula_structural   LiTi3Nb(CuO4)3
_chemical_formula_sum   'Li1 Ti3 Nb1 Cu3 O12'
_cell_volume   210.82742937
_cell_formula_units_Z   1
loop_
 _symmetry_equiv_pos_site_id
 _symmetry_equiv_pos_as_xyz
  1  'x, y, z'
loop_
 _atom_site_type_symbol
 _atom_site_label
 _atom_site_symmetry_multiplicity
 _atom_site_fract_x
 _atom_site_fract_y
 _atom_site_fract_z
 _atom_site_occupancy
  Li  Li0  1  0.954181  0.913545  0.875966  1
  Ti  Ti1  1  0.482167  0.482839  0.475970  1
  Ti  Ti2  1  0.003569  0.992387  0.481130  1
  Ti  Ti3  1  0.986849  0.486490  0.981651  1
  Nb  Nb4  1  0.503740  0.000801  0.994725  1
  Cu  Cu5  1  0.499202  0.497787  0.996431  1
  Cu  Cu6  1  0.503604  0.998286  0.500797  1
  Cu  Cu7  1  0.998015  0.502848  0.500484  1
  O  O8  1  0.179004  0.310940  0.489597  1
  O  O9  1  0.521882  0.820995  0.695662  1
  O  O10  1  0.131799  0.821862  0.312449  1
  O  O11  1  0.309404  0.488587  0.180012  1
  O  O12  1  0.691829  0.867975  0.179192  1
  O  O13  1  0.172308  0.696443  0.871480  1
  O  O14  1  0.821601  0.313435  0.131516  1
  O  O15  1  0.696554  0.516120  0.820881  1
  O  O16  1  0.301042  0.125547  0.818906  1
  O  O17  1  0.875370  0.179721  0.698569  1
  O  O18  1  0.489211  0.178793  0.311597  1
  O  O19  1  0.817669  0.693594  0.510985  1
