# generated using pymatgen
data_Mn7P12WO48
_symmetry_space_group_name_H-M   'P 1'
_cell_length_a   8.49952817
_cell_length_b   8.51644587
_cell_length_c   11.84655463
_cell_angle_alpha   89.95924495
_cell_angle_beta   89.92899281
_cell_angle_gamma   89.95253193
_symmetry_Int_Tables_number   1
_chemical_formula_structural   Mn7P12WO48
_chemical_formula_sum   'Mn7 P12 W1 O48'
_cell_volume   857.52082811
_cell_formula_units_Z   1
loop_
 _symmetry_equiv_pos_site_id
 _symmetry_equiv_pos_as_xyz
  1  'x, y, z'
loop_
 _atom_site_type_symbol
 _atom_site_label
 _atom_site_symmetry_multiplicity
 _atom_site_fract_x
 _atom_site_fract_y
 _atom_site_fract_z
 _atom_site_occupancy
  Mn  Mn0  1  0.032130  0.249307  0.618713  1
  Mn  Mn1  1  0.465473  0.250780  0.380525  1
  Mn  Mn2  1  0.964905  0.249739  0.117653  1
  Mn  Mn3  1  0.534542  0.250474  0.883120  1
  Mn  Mn4  1  0.464613  0.750624  0.119631  1
  Mn  Mn5  1  0.033786  0.749946  0.883570  1
  Mn  Mn6  1  0.967125  0.749262  0.381289  1
  P  P7  1  0.755650  0.043256  0.496394  1
  P  P8  1  0.607648  0.106562  0.145837  1
  P  P9  1  0.891530  0.106676  0.855053  1
  P  P10  1  0.390565  0.382763  0.646214  1
  P  P11  1  0.107695  0.392435  0.354733  1
  P  P12  1  0.249783  0.463604  0.000584  1
  P  P13  1  0.749590  0.537280  0.000482  1
  P  P14  1  0.608545  0.603638  0.349163  1
  P  P15  1  0.902417  0.603720  0.645803  1
  P  P16  1  0.387329  0.899086  0.861397  1
  P  P17  1  0.107819  0.893202  0.145769  1
  P  P18  1  0.242590  0.967956  0.496004  1
  W  W19  1  0.532347  0.750322  0.620842  1
  O  O20  1  0.356069  0.062072  0.422975  1
  O  O21  1  0.139375  0.059374  0.578237  1
  O  O22  1  0.098676  0.074593  0.158977  1
  O  O23  1  0.398657  0.077246  0.844017  1
  O  O24  1  0.840548  0.146945  0.582590  1
  O  O25  1  0.656342  0.144467  0.417725  1
  O  O26  1  0.561829  0.158612  0.026694  1
  O  O27  1  0.938572  0.159220  0.973659  1
  O  O28  1  0.778100  0.153017  0.176365  1
  O  O29  1  0.721460  0.152534  0.824281  1
  O  O30  1  0.486104  0.180215  0.227216  1
  O  O31  1  0.013326  0.178772  0.772339  1
  O  O32  1  0.986215  0.320347  0.271956  1
  O  O33  1  0.513100  0.316651  0.728216  1
  O  O34  1  0.219584  0.347148  0.676542  1
  O  O35  1  0.277720  0.347322  0.323335  1
  O  O36  1  0.436211  0.340117  0.526259  1
  O  O37  1  0.061006  0.339791  0.473578  1
  O  O38  1  0.159024  0.353166  0.081596  1
  O  O39  1  0.341918  0.355528  0.919269  1
  O  O40  1  0.900993  0.424143  0.659670  1
  O  O41  1  0.601940  0.423595  0.343969  1
  O  O42  1  0.859506  0.440616  0.076853  1
  O  O43  1  0.641134  0.441090  0.922837  1
  O  O44  1  0.358662  0.559947  0.077435  1
  O  O45  1  0.140278  0.559832  0.923496  1
  O  O46  1  0.408022  0.568663  0.656110  1
  O  O47  1  0.099777  0.574085  0.341368  1
  O  O48  1  0.658444  0.646120  0.081968  1
  O  O49  1  0.840152  0.646661  0.918218  1
  O  O50  1  0.939958  0.657960  0.526736  1
  O  O51  1  0.562104  0.662451  0.471608  1
  O  O52  1  0.777748  0.653625  0.324252  1
  O  O53  1  0.725651  0.652927  0.671317  1
  O  O54  1  0.485312  0.679965  0.272203  1
  O  O55  1  0.015382  0.683743  0.728265  1
  O  O56  1  0.986268  0.818990  0.227603  1
  O  O57  1  0.506103  0.824172  0.772173  1
  O  O58  1  0.277886  0.847485  0.176616  1
  O  O59  1  0.222046  0.847207  0.825734  1
  O  O60  1  0.439698  0.840138  0.975000  1
  O  O61  1  0.061545  0.841512  0.026800  1
  O  O62  1  0.344849  0.857545  0.575980  1
  O  O63  1  0.158241  0.852901  0.417836  1
  O  O64  1  0.899451  0.925201  0.842367  1
  O  O65  1  0.599468  0.925520  0.159127  1
  O  O66  1  0.861604  0.941222  0.422674  1
  O  O67  1  0.647866  0.934913  0.573187  1
