# generated using pymatgen
data_Li4Cr3Co3(WO8)2
_symmetry_space_group_name_H-M   'P 1'
_cell_length_a   5.94138055
_cell_length_b   5.94138055
_cell_length_c   9.67372077
_cell_angle_alpha   89.57649473
_cell_angle_beta   90.42350527
_cell_angle_gamma   119.88653996
_symmetry_Int_Tables_number   1
_chemical_formula_structural   Li4Cr3Co3(WO8)2
_chemical_formula_sum   'Li4 Cr3 Co3 W2 O16'
_cell_volume   296.05914228
_cell_formula_units_Z   1
loop_
 _symmetry_equiv_pos_site_id
 _symmetry_equiv_pos_as_xyz
  1  'x, y, z'
loop_
 _atom_site_type_symbol
 _atom_site_label
 _atom_site_symmetry_multiplicity
 _atom_site_fract_x
 _atom_site_fract_y
 _atom_site_fract_z
 _atom_site_occupancy
  Li  Li0  1  0.329010  0.670990  0.090938  1
  Li  Li1  1  0.002686  0.997314  0.013444  1
  Li  Li2  1  0.002524  0.997476  0.506692  1
  Li  Li3  1  0.664729  0.335271  0.596593  1
  Cr  Cr4  1  0.168606  0.336428  0.786932  1
  Cr  Cr5  1  0.663572  0.831394  0.786932  1
  Cr  Cr6  1  0.827838  0.172162  0.286019  1
  Co  Co7  1  0.171924  0.828076  0.786243  1
  Co  Co8  1  0.341953  0.175562  0.285567  1
  Co  Co9  1  0.824438  0.658047  0.285567  1
  W  W10  1  0.330447  0.669553  0.512814  1
  W  W11  1  0.666774  0.333226  0.013396  1
  O  O12  1  0.158515  0.349118  0.416287  1
  O  O13  1  0.479032  0.520968  0.658024  1
  O  O14  1  0.331203  0.668797  0.887727  1
  O  O15  1  0.005034  0.994966  0.694511  1
  O  O16  1  0.000070  0.999930  0.201116  1
  O  O17  1  0.650882  0.841485  0.416287  1
  O  O18  1  0.041982  0.527134  0.662725  1
  O  O19  1  0.472866  0.958018  0.662725  1
  O  O20  1  0.832451  0.167549  0.902503  1
  O  O21  1  0.171433  0.828567  0.421100  1
  O  O22  1  0.533558  0.038312  0.145366  1
  O  O23  1  0.961688  0.466442  0.145366  1
  O  O24  1  0.665552  0.334448  0.391085  1
  O  O25  1  0.339705  0.157525  0.903421  1
  O  O26  1  0.516889  0.483111  0.129350  1
  O  O27  1  0.842475  0.660295  0.903421  1
