# generated using pymatgen
data_Ca4PtO6
_symmetry_space_group_name_H-M   'P 1'
_cell_length_a   6.62683944
_cell_length_b   6.62683944
_cell_length_c   6.62683944
_cell_angle_alpha   90.81152113
_cell_angle_beta   90.81152113
_cell_angle_gamma   90.81152113
_symmetry_Int_Tables_number   1
_chemical_formula_structural   Ca4PtO6
_chemical_formula_sum   'Ca8 Pt2 O12'
_cell_volume   290.92925453
_cell_formula_units_Z   2
loop_
 _symmetry_equiv_pos_site_id
 _symmetry_equiv_pos_as_xyz
  1  'x, y, z'
loop_
 _atom_site_type_symbol
 _atom_site_label
 _atom_site_symmetry_multiplicity
 _atom_site_fract_x
 _atom_site_fract_y
 _atom_site_fract_z
 _atom_site_occupancy
  Ca  Ca0  1  0.387845  0.750000  0.112155  1
  Ca  Ca1  1  0.112155  0.387845  0.750000  1
  Ca  Ca2  1  0.750000  0.112155  0.387845  1
  Ca  Ca3  1  0.612155  0.250000  0.887845  1
  Ca  Ca4  1  0.887845  0.612155  0.250000  1
  Ca  Ca5  1  0.250000  0.887845  0.612155  1
  Ca  Ca6  1  0.250000  0.250000  0.250000  1
  Ca  Ca7  1  0.750000  0.750000  0.750000  1
  Pt  Pt8  1  0.500000  0.500000  0.500000  1
  Pt  Pt9  1  0.000000  0.000000  0.000000  1
  O  O10  1  0.552795  0.430414  0.201561  1
  O  O11  1  0.201561  0.552795  0.430414  1
  O  O12  1  0.430414  0.201561  0.552795  1
  O  O13  1  0.298439  0.069586  0.947205  1
  O  O14  1  0.947205  0.298439  0.069586  1
  O  O15  1  0.069586  0.947205  0.298439  1
  O  O16  1  0.447205  0.569586  0.798439  1
  O  O17  1  0.798439  0.447205  0.569586  1
  O  O18  1  0.569586  0.798439  0.447205  1
  O  O19  1  0.701561  0.930414  0.052795  1
  O  O20  1  0.930414  0.052795  0.701561  1
  O  O21  1  0.052795  0.701561  0.930414  1
