# generated using pymatgen
data_TiCo3(PO4)4
_symmetry_space_group_name_H-M   'P 1'
_cell_length_a   4.90229201
_cell_length_b   5.95459399
_cell_length_c   9.85874559
_cell_angle_alpha   90.00000000
_cell_angle_beta   90.14878908
_cell_angle_gamma   90.00000000
_symmetry_Int_Tables_number   1
_chemical_formula_structural   TiCo3(PO4)4
_chemical_formula_sum   'Ti1 Co3 P4 O16'
_cell_volume   287.78723533
_cell_formula_units_Z   1
loop_
 _symmetry_equiv_pos_site_id
 _symmetry_equiv_pos_as_xyz
  1  'x, y, z'
loop_
 _atom_site_type_symbol
 _atom_site_label
 _atom_site_symmetry_multiplicity
 _atom_site_fract_x
 _atom_site_fract_y
 _atom_site_fract_z
 _atom_site_occupancy
  Ti  Ti0  1  0.966206  0.500000  0.272955  1
  Co  Co1  1  0.027927  0.000000  0.729739  1
  Co  Co2  1  0.469524  0.000000  0.228365  1
  Co  Co3  1  0.534261  0.500000  0.769084  1
  P  P4  1  0.089547  0.500000  0.600538  1
  P  P5  1  0.394883  0.500000  0.096111  1
  P  P6  1  0.587718  0.000000  0.899730  1
  P  P7  1  0.932797  0.000000  0.405095  1
  O  O8  1  0.141089  0.500000  0.444752  1
  O  O9  1  0.238064  0.297140  0.667863  1
  O  O10  1  0.238064  0.702860  0.667863  1
  O  O11  1  0.237914  0.000000  0.387217  1
  O  O12  1  0.276109  0.000000  0.872353  1
  O  O13  1  0.241963  0.302642  0.169577  1
  O  O14  1  0.241963  0.697358  0.169577  1
  O  O15  1  0.354795  0.500000  0.942458  1
  O  O16  1  0.641374  0.000000  0.050978  1
  O  O17  1  0.734166  0.796538  0.828258  1
  O  O18  1  0.734166  0.203462  0.828258  1
  O  O19  1  0.700376  0.500000  0.131856  1
  O  O20  1  0.778047  0.500000  0.621764  1
  O  O21  1  0.792493  0.793119  0.329685  1
  O  O22  1  0.792493  0.206881  0.329685  1
  O  O23  1  0.854059  0.000000  0.556239  1
