# generated using pymatgen
data_Li4Cu2Ni5O12
_symmetry_space_group_name_H-M   'P 1'
_cell_length_a   5.27088700
_cell_length_b   8.56290069
_cell_length_c   9.57282687
_cell_angle_alpha   90.00000000
_cell_angle_beta   97.20321869
_cell_angle_gamma   90.00000000
_symmetry_Int_Tables_number   1
_chemical_formula_structural   Li4Cu2Ni5O12
_chemical_formula_sum   'Li8 Cu4 Ni10 O24'
_cell_volume   428.65078172
_cell_formula_units_Z   2
loop_
 _symmetry_equiv_pos_site_id
 _symmetry_equiv_pos_as_xyz
  1  'x, y, z'
loop_
 _atom_site_type_symbol
 _atom_site_label
 _atom_site_symmetry_multiplicity
 _atom_site_fract_x
 _atom_site_fract_y
 _atom_site_fract_z
 _atom_site_occupancy
  Li  Li0  1  0.504485  0.909042  0.745713  1
  Li  Li1  1  0.003384  0.603204  0.258082  1
  Li  Li2  1  0.758391  0.575829  0.510058  1
  Li  Li3  1  0.488974  0.584317  0.740783  1
  Li  Li4  1  0.241609  0.075829  0.489942  1
  Li  Li5  1  0.495515  0.409042  0.254287  1
  Li  Li6  1  0.996616  0.103204  0.741918  1
  Li  Li7  1  0.511026  0.084317  0.259217  1
  Cu  Cu8  1  0.250970  0.743537  0.498835  1
  Cu  Cu9  1  0.751225  0.761721  0.005128  1
  Cu  Cu10  1  0.248775  0.261721  0.994872  1
  Cu  Cu11  1  0.749030  0.243537  0.501165  1
  Ni  Ni12  1  0.242518  0.921206  0.001530  1
  Ni  Ni13  1  0.754213  0.908748  0.500105  1
  Ni  Ni14  1  0.999825  0.744979  0.748358  1
  Ni  Ni15  1  0.254815  0.589389  0.998440  1
  Ni  Ni16  1  0.504963  0.749459  0.254987  1
  Ni  Ni17  1  0.245787  0.408748  0.499895  1
  Ni  Ni18  1  0.757482  0.421206  0.998470  1
  Ni  Ni19  1  0.000175  0.244979  0.251642  1
  Ni  Ni20  1  0.495037  0.249459  0.745013  1
  Ni  Ni21  1  0.745185  0.089389  0.001560  1
  O  O22  1  0.126638  0.892497  0.616895  1
  O  O23  1  0.869621  0.916467  0.892679  1
  O  O24  1  0.183948  0.742811  0.132129  1
  O  O25  1  0.606337  0.919799  0.105776  1
  O  O26  1  0.818094  0.748927  0.371741  1
  O  O27  1  0.395098  0.893208  0.389250  1
  O  O28  1  0.144230  0.587218  0.611919  1
  O  O29  1  0.679429  0.752445  0.638189  1
  O  O30  1  0.874721  0.610102  0.892418  1
  O  O31  1  0.323289  0.749517  0.864223  1
  O  O32  1  0.635388  0.605193  0.119453  1
  O  O33  1  0.130379  0.416467  0.107321  1
  O  O34  1  0.348134  0.581617  0.384576  1
  O  O35  1  0.873362  0.392497  0.383105  1
  O  O36  1  0.181906  0.248927  0.628259  1
  O  O37  1  0.604902  0.393208  0.610750  1
  O  O38  1  0.816052  0.242811  0.867871  1
  O  O39  1  0.393663  0.419799  0.894224  1
  O  O40  1  0.125279  0.110102  0.107582  1
  O  O41  1  0.676711  0.249517  0.135777  1
  O  O42  1  0.855770  0.087218  0.388081  1
  O  O43  1  0.320571  0.252445  0.361811  1
  O  O44  1  0.651866  0.081617  0.615424  1
  O  O45  1  0.364612  0.105193  0.880547  1
