# generated using pymatgen
data_V3CrO10
_symmetry_space_group_name_H-M   'P 1'
_cell_length_a   6.59831653
_cell_length_b   6.59831653
_cell_length_c   4.46643108
_cell_angle_alpha   90.00000000
_cell_angle_beta   90.00000000
_cell_angle_gamma   90.00000000
_symmetry_Int_Tables_number   1
_chemical_formula_structural   V3CrO10
_chemical_formula_sum   'V3 Cr1 O10'
_cell_volume   194.45849838
_cell_formula_units_Z   1
loop_
 _symmetry_equiv_pos_site_id
 _symmetry_equiv_pos_as_xyz
  1  'x, y, z'
loop_
 _atom_site_type_symbol
 _atom_site_label
 _atom_site_symmetry_multiplicity
 _atom_site_fract_x
 _atom_site_fract_y
 _atom_site_fract_z
 _atom_site_occupancy
  V  V0  1  0.000000  0.500000  0.620813  1
  V  V1  1  0.500000  0.000000  0.379187  1
  V  V2  1  0.500000  0.500000  0.500000  1
  Cr  Cr3  1  0.000000  0.000000  0.500000  1
  O  O4  1  0.783932  0.000000  0.282111  1
  O  O5  1  0.000000  0.500000  0.259207  1
  O  O6  1  0.000000  0.216068  0.717889  1
  O  O7  1  0.000000  0.783932  0.717889  1
  O  O8  1  0.216068  0.000000  0.282111  1
  O  O9  1  0.281164  0.500000  0.717903  1
  O  O10  1  0.500000  0.718836  0.282097  1
  O  O11  1  0.500000  0.281164  0.282097  1
  O  O12  1  0.500000  0.000000  0.740793  1
  O  O13  1  0.718836  0.500000  0.717903  1
