# generated using pymatgen
data_MnPO4
_symmetry_space_group_name_H-M   'P 1'
_cell_length_a   7.18398990
_cell_length_b   8.39541080
_cell_length_c   8.45519725
_cell_angle_alpha   119.69578400
_cell_angle_beta   93.75246454
_cell_angle_gamma   89.80201497
_symmetry_Int_Tables_number   1
_chemical_formula_structural   MnPO4
_chemical_formula_sum   'Mn6 P6 O24'
_cell_volume   441.78453876
_cell_formula_units_Z   6
loop_
 _symmetry_equiv_pos_site_id
 _symmetry_equiv_pos_as_xyz
  1  'x, y, z'
loop_
 _atom_site_type_symbol
 _atom_site_label
 _atom_site_symmetry_multiplicity
 _atom_site_fract_x
 _atom_site_fract_y
 _atom_site_fract_z
 _atom_site_occupancy
  Mn  Mn0  1  0.000000  0.000000  0.000000  1
  Mn  Mn1  1  0.500000  0.000000  0.000000  1
  Mn  Mn2  1  0.050257  0.328411  0.670662  1
  Mn  Mn3  1  0.450523  0.337398  0.661125  1
  Mn  Mn4  1  0.949743  0.671589  0.329338  1
  Mn  Mn5  1  0.549477  0.662602  0.338875  1
  P  P6  1  0.741537  0.038436  0.359916  1
  P  P7  1  0.755283  0.636335  0.678250  1
  P  P8  1  0.244211  0.678571  0.040799  1
  P  P9  1  0.755789  0.321429  0.959201  1
  P  P10  1  0.244717  0.363665  0.321750  1
  P  P11  1  0.258463  0.961564  0.640084  1
  O  O12  1  0.224920  0.157997  0.187534  1
  O  O13  1  0.259955  0.399404  0.522553  1
  O  O14  1  0.922433  0.158019  0.444735  1
  O  O15  1  0.567726  0.145065  0.437909  1
  O  O16  1  0.579296  0.564974  0.721373  1
  O  O17  1  0.932273  0.545990  0.704091  1
  O  O18  1  0.246990  0.133462  0.607280  1
  O  O19  1  0.249251  0.815004  0.968852  1
  O  O20  1  0.237470  0.477199  0.875665  1
  O  O21  1  0.732120  0.965715  0.152972  1
  O  O22  1  0.928533  0.278295  0.847402  1
  O  O23  1  0.574097  0.294694  0.840588  1
  O  O24  1  0.071467  0.721705  0.152598  1
  O  O25  1  0.425903  0.705306  0.159412  1
  O  O26  1  0.267880  0.034285  0.847028  1
  O  O27  1  0.762530  0.522801  0.124335  1
  O  O28  1  0.750749  0.184996  0.031148  1
  O  O29  1  0.753010  0.866538  0.392720  1
  O  O30  1  0.420704  0.435026  0.278627  1
  O  O31  1  0.067727  0.454010  0.295909  1
  O  O32  1  0.077567  0.841981  0.555265  1
  O  O33  1  0.432274  0.854935  0.562091  1
  O  O34  1  0.740045  0.600596  0.477447  1
  O  O35  1  0.775080  0.842003  0.812466  1
