# generated using pymatgen
data_Li2Fe(SiO3)2
_symmetry_space_group_name_H-M   'P 1'
_cell_length_a   7.18892228
_cell_length_b   9.89051979
_cell_length_c   10.28429385
_cell_angle_alpha   90.00000000
_cell_angle_beta   90.00000000
_cell_angle_gamma   90.00000000
_symmetry_Int_Tables_number   1
_chemical_formula_structural   Li2Fe(SiO3)2
_chemical_formula_sum   'Li12 Fe6 Si12 O36'
_cell_volume   731.23569274
_cell_formula_units_Z   6
loop_
 _symmetry_equiv_pos_site_id
 _symmetry_equiv_pos_as_xyz
  1  'x, y, z'
loop_
 _atom_site_type_symbol
 _atom_site_label
 _atom_site_symmetry_multiplicity
 _atom_site_fract_x
 _atom_site_fract_y
 _atom_site_fract_z
 _atom_site_occupancy
  Li  Li0  1  0.788328  0.243957  0.000000  1
  Li  Li1  1  0.772560  0.767664  0.000000  1
  Li  Li2  1  0.290385  0.458066  0.228948  1
  Li  Li3  1  0.217706  0.035138  0.232064  1
  Li  Li4  1  0.782294  0.535138  0.267936  1
  Li  Li5  1  0.709615  0.958066  0.271052  1
  Li  Li6  1  0.227440  0.267664  0.500000  1
  Li  Li7  1  0.211672  0.743957  0.500000  1
  Li  Li8  1  0.709615  0.958066  0.728948  1
  Li  Li9  1  0.782294  0.535138  0.732064  1
  Li  Li10  1  0.217706  0.035138  0.767936  1
  Li  Li11  1  0.290385  0.458066  0.771052  1
  Fe  Fe12  1  0.250186  0.246322  0.000000  1
  Fe  Fe13  1  0.983736  0.021707  0.000000  1
  Fe  Fe14  1  0.518214  0.468230  0.000000  1
  Fe  Fe15  1  0.016264  0.521707  0.500000  1
  Fe  Fe16  1  0.481786  0.968230  0.500000  1
  Fe  Fe17  1  0.749814  0.746322  0.500000  1
  Si  Si18  1  0.984351  0.530048  0.000000  1
  Si  Si19  1  0.516122  0.965689  0.000000  1
  Si  Si20  1  0.025631  0.753375  0.225535  1
  Si  Si21  1  0.476626  0.742489  0.225047  1
  Si  Si22  1  0.523374  0.242489  0.274953  1
  Si  Si23  1  0.974369  0.253375  0.274465  1
  Si  Si24  1  0.483878  0.465689  0.500000  1
  Si  Si25  1  0.015649  0.030048  0.500000  1
  Si  Si26  1  0.974369  0.253375  0.725535  1
  Si  Si27  1  0.523374  0.242489  0.725047  1
  Si  Si28  1  0.476626  0.742489  0.774953  1
  Si  Si29  1  0.025631  0.753375  0.774465  1
  O  O30  1  0.305824  0.024964  0.000000  1
  O  O31  1  0.693685  0.065677  0.000000  1
  O  O32  1  0.192241  0.468534  0.000000  1
  O  O33  1  0.805968  0.431362  0.000000  1
  O  O34  1  0.043697  0.194100  0.135534  1
  O  O35  1  0.557619  0.857315  0.121204  1
  O  O36  1  0.946941  0.636536  0.123208  1
  O  O37  1  0.443468  0.302018  0.139121  1
  O  O38  1  0.950657  0.899585  0.175358  1
  O  O39  1  0.537274  0.590959  0.181139  1
  O  O40  1  0.749069  0.256756  0.276385  1
  O  O41  1  0.250931  0.756756  0.223615  1
  O  O42  1  0.462726  0.090959  0.318861  1
  O  O43  1  0.049343  0.399585  0.324642  1
  O  O44  1  0.556532  0.802018  0.360879  1
  O  O45  1  0.053059  0.136536  0.376792  1
  O  O46  1  0.442381  0.357315  0.378796  1
  O  O47  1  0.956303  0.694100  0.364466  1
  O  O48  1  0.694176  0.524964  0.500000  1
  O  O49  1  0.306315  0.565677  0.500000  1
  O  O50  1  0.194032  0.931362  0.500000  1
  O  O51  1  0.807759  0.968534  0.500000  1
  O  O52  1  0.956303  0.694100  0.635534  1
  O  O53  1  0.442381  0.357315  0.621204  1
  O  O54  1  0.053059  0.136536  0.623208  1
  O  O55  1  0.556532  0.802018  0.639121  1
  O  O56  1  0.049343  0.399585  0.675358  1
  O  O57  1  0.462726  0.090959  0.681139  1
  O  O58  1  0.250931  0.756756  0.776385  1
  O  O59  1  0.749069  0.256756  0.723615  1
  O  O60  1  0.537274  0.590959  0.818861  1
  O  O61  1  0.950657  0.899585  0.824642  1
  O  O62  1  0.443468  0.302018  0.860879  1
  O  O63  1  0.946941  0.636536  0.876792  1
  O  O64  1  0.557619  0.857315  0.878796  1
  O  O65  1  0.043697  0.194100  0.864466  1
