# generated using pymatgen
data_Li2V3CrO8
_symmetry_space_group_name_H-M   'P 1'
_cell_length_a   6.42832325
_cell_length_b   6.42832325
_cell_length_c   6.49447544
_cell_angle_alpha   73.62816034
_cell_angle_beta   106.37183966
_cell_angle_gamma   143.44953024
_symmetry_Int_Tables_number   1
_chemical_formula_structural   Li2V3CrO8
_chemical_formula_sum   'Li2 V3 Cr1 O8'
_cell_volume   152.62074008
_cell_formula_units_Z   1
loop_
 _symmetry_equiv_pos_site_id
 _symmetry_equiv_pos_as_xyz
  1  'x, y, z'
loop_
 _atom_site_type_symbol
 _atom_site_label
 _atom_site_symmetry_multiplicity
 _atom_site_fract_x
 _atom_site_fract_y
 _atom_site_fract_z
 _atom_site_occupancy
  Li  Li0  1  0.942494  0.057506  0.649151  1
  Li  Li1  1  0.055838  0.944162  0.353098  1
  V  V2  1  0.610673  0.389327  0.719650  1
  V  V3  1  0.390885  0.609115  0.281336  1
  V  V4  1  0.711261  0.288739  0.309818  1
  Cr  Cr5  1  0.288130  0.711870  0.690202  1
  O  O6  1  0.881434  0.118566  0.321324  1
  O  O7  1  0.767383  0.232617  0.654175  1
  O  O8  1  0.649099  0.350901  0.992529  1
  O  O9  1  0.559253  0.440747  0.359871  1
  O  O10  1  0.440546  0.559454  0.634036  1
  O  O11  1  0.350390  0.649610  0.006159  1
  O  O12  1  0.232070  0.767930  0.350288  1
  O  O13  1  0.120544  0.879456  0.678358  1
