# generated using pymatgen
data_Fe5O7F3
_symmetry_space_group_name_H-M   'P 1'
_cell_length_a   4.66250842
_cell_length_b   4.66250842
_cell_length_c   15.26308624
_cell_angle_alpha   89.97313599
_cell_angle_beta   90.02686401
_cell_angle_gamma   88.57666632
_symmetry_Int_Tables_number   1
_chemical_formula_structural   Fe5O7F3
_chemical_formula_sum   'Fe10 O14 F6'
_cell_volume   331.70154872
_cell_formula_units_Z   2
loop_
 _symmetry_equiv_pos_site_id
 _symmetry_equiv_pos_as_xyz
  1  'x, y, z'
loop_
 _atom_site_type_symbol
 _atom_site_label
 _atom_site_symmetry_multiplicity
 _atom_site_fract_x
 _atom_site_fract_y
 _atom_site_fract_z
 _atom_site_occupancy
  Fe  Fe0  1  0.036843  0.985558  0.094698  1
  Fe  Fe1  1  0.985558  0.036843  0.905302  1
  Fe  Fe2  1  0.020215  0.014503  0.700297  1
  Fe  Fe3  1  0.017377  0.017377  0.500000  1
  Fe  Fe4  1  0.014503  0.020215  0.299703  1
  Fe  Fe5  1  0.509048  0.509048  0.000000  1
  Fe  Fe6  1  0.486465  0.486097  0.598594  1
  Fe  Fe7  1  0.486608  0.472232  0.793096  1
  Fe  Fe8  1  0.486097  0.486465  0.401406  1
  Fe  Fe9  1  0.472232  0.486608  0.206904  1
  O  O10  1  0.208083  0.208083  0.000000  1
  O  O11  1  0.180104  0.195993  0.801607  1
  O  O12  1  0.194203  0.187764  0.599639  1
  O  O13  1  0.187764  0.194203  0.400361  1
  O  O14  1  0.195993  0.180104  0.198393  1
  O  O15  1  0.679517  0.326164  0.900163  1
  O  O16  1  0.696589  0.300245  0.695236  1
  O  O17  1  0.693496  0.308585  0.499791  1
  O  O18  1  0.692056  0.303953  0.303146  1
  O  O19  1  0.326164  0.679517  0.099837  1
  O  O20  1  0.303953  0.692056  0.696854  1
  O  O21  1  0.308585  0.693496  0.500209  1
  O  O22  1  0.300245  0.696589  0.304764  1
  O  O23  1  0.806872  0.806872  0.000000  1
  F  F24  1  0.707703  0.294114  0.104310  1
  F  F25  1  0.294114  0.707703  0.895690  1
  F  F26  1  0.805906  0.802630  0.599116  1
  F  F27  1  0.793939  0.807138  0.799550  1
  F  F28  1  0.807138  0.793939  0.200450  1
  F  F29  1  0.802630  0.805906  0.400884  1
