# generated using pymatgen
data_Mn4O7F
_symmetry_space_group_name_H-M   'P 1'
_cell_length_a   6.69800794
_cell_length_b   6.69800794
_cell_length_c   5.50849136
_cell_angle_alpha   89.89942571
_cell_angle_beta   90.10057429
_cell_angle_gamma   96.08322022
_symmetry_Int_Tables_number   1
_chemical_formula_structural   Mn4O7F
_chemical_formula_sum   'Mn8 O14 F2'
_cell_volume   245.73689386
_cell_formula_units_Z   2
loop_
 _symmetry_equiv_pos_site_id
 _symmetry_equiv_pos_as_xyz
  1  'x, y, z'
loop_
 _atom_site_type_symbol
 _atom_site_label
 _atom_site_symmetry_multiplicity
 _atom_site_fract_x
 _atom_site_fract_y
 _atom_site_fract_z
 _atom_site_occupancy
  Mn  Mn0  1  0.372865  0.866881  0.352239  1
  Mn  Mn1  1  0.116540  0.126073  0.669857  1
  Mn  Mn2  1  0.133119  0.627135  0.852239  1
  Mn  Mn3  1  0.873927  0.883460  0.169857  1
  Mn  Mn4  1  0.382556  0.382332  0.130519  1
  Mn  Mn5  1  0.623822  0.121278  0.855528  1
  Mn  Mn6  1  0.617668  0.617444  0.630519  1
  Mn  Mn7  1  0.878722  0.376178  0.355528  1
  O  O8  1  0.153164  0.827350  0.114502  1
  O  O9  1  0.172650  0.846836  0.614502  1
  O  O10  1  0.575200  0.900779  0.607591  1
  O  O11  1  0.080128  0.407277  0.614887  1
  O  O12  1  0.346476  0.175511  0.889148  1
  O  O13  1  0.099221  0.424800  0.107591  1
  O  O14  1  0.592723  0.919872  0.114887  1
  O  O15  1  0.410060  0.582404  0.885316  1
  O  O16  1  0.658885  0.329138  0.106505  1
  O  O17  1  0.898275  0.070253  0.895566  1
  O  O18  1  0.417596  0.589940  0.385316  1
  O  O19  1  0.670862  0.341115  0.606505  1
  O  O20  1  0.929747  0.101725  0.395566  1
  O  O21  1  0.824489  0.653524  0.389148  1
  F  F22  1  0.333433  0.162129  0.378342  1
  F  F23  1  0.837871  0.666567  0.878342  1
