# generated using pymatgen
data_Cu6OF11
_symmetry_space_group_name_H-M   'P 1'
_cell_length_a   3.27692351
_cell_length_b   4.67280840
_cell_length_c   13.80577804
_cell_angle_alpha   88.38341706
_cell_angle_beta   89.21093563
_cell_angle_gamma   83.22993595
_symmetry_Int_Tables_number   1
_chemical_formula_structural   Cu6OF11
_chemical_formula_sum   'Cu6 O1 F11'
_cell_volume   209.83087420
_cell_formula_units_Z   1
loop_
 _symmetry_equiv_pos_site_id
 _symmetry_equiv_pos_as_xyz
  1  'x, y, z'
loop_
 _atom_site_type_symbol
 _atom_site_label
 _atom_site_symmetry_multiplicity
 _atom_site_fract_x
 _atom_site_fract_y
 _atom_site_fract_z
 _atom_site_occupancy
  Cu  Cu0  1  0.999412  0.008018  0.998286  1
  Cu  Cu1  1  0.000452  0.997711  0.333740  1
  Cu  Cu2  1  0.001984  0.983317  0.672083  1
  Cu  Cu3  1  0.504122  0.491919  0.501878  1
  Cu  Cu4  1  0.500191  0.501918  0.165884  1
  Cu  Cu5  1  0.518201  0.534151  0.822842  1
  O  O6  1  0.022074  0.697280  0.766912  1
  F  F7  1  0.028485  0.696722  0.434834  1
  F  F8  1  0.023929  0.706573  0.098511  1
  F  F9  1  0.547672  0.203023  0.735016  1
  F  F10  1  0.530338  0.202929  0.401972  1
  F  F11  1  0.529234  0.205462  0.067449  1
  F  F12  1  0.460076  0.802352  0.931268  1
  F  F13  1  0.452573  0.787019  0.600303  1
  F  F14  1  0.471741  0.795370  0.265769  1
  F  F15  1  0.976214  0.298732  0.233313  1
  F  F16  1  0.964010  0.307520  0.898334  1
  F  F17  1  0.969292  0.279984  0.571603  1
