# generated using pymatgen
data_SrSn(BO3)2
_symmetry_space_group_name_H-M   'P 1'
_cell_length_a   6.39088518
_cell_length_b   6.39088518
_cell_length_c   6.39088518
_cell_angle_alpha   46.05196571
_cell_angle_beta   46.05196571
_cell_angle_gamma   46.05196571
_symmetry_Int_Tables_number   1
_chemical_formula_structural   SrSn(BO3)2
_chemical_formula_sum   'Sr1 Sn1 B2 O6'
_cell_volume   123.42826508
_cell_formula_units_Z   1
loop_
 _symmetry_equiv_pos_site_id
 _symmetry_equiv_pos_as_xyz
  1  'x, y, z'
loop_
 _atom_site_type_symbol
 _atom_site_label
 _atom_site_symmetry_multiplicity
 _atom_site_fract_x
 _atom_site_fract_y
 _atom_site_fract_z
 _atom_site_occupancy
  Sr  Sr0  1  0.000000  0.000000  0.000000  1
  Sn  Sn1  1  0.500000  0.500000  0.500000  1
  B  B2  1  0.234981  0.234981  0.234981  1
  B  B3  1  0.765019  0.765019  0.765019  1
  O  O4  1  0.491407  0.942266  0.281947  1
  O  O5  1  0.281947  0.491407  0.942266  1
  O  O6  1  0.057734  0.718053  0.508593  1
  O  O7  1  0.508593  0.057734  0.718053  1
  O  O8  1  0.718053  0.508593  0.057734  1
  O  O9  1  0.942266  0.281947  0.491407  1
