# generated using pymatgen
data_Fe10O9F11
_symmetry_space_group_name_H-M   'P 1'
_cell_length_a   4.75466351
_cell_length_b   15.50504713
_cell_length_c   4.76634067
_cell_angle_alpha   90.00000000
_cell_angle_beta   92.17771492
_cell_angle_gamma   90.00000000
_symmetry_Int_Tables_number   1
_chemical_formula_structural   Fe10O9F11
_chemical_formula_sum   'Fe10 O9 F11'
_cell_volume   351.12696654
_cell_formula_units_Z   1
loop_
 _symmetry_equiv_pos_site_id
 _symmetry_equiv_pos_as_xyz
  1  'x, y, z'
loop_
 _atom_site_type_symbol
 _atom_site_label
 _atom_site_symmetry_multiplicity
 _atom_site_fract_x
 _atom_site_fract_y
 _atom_site_fract_z
 _atom_site_occupancy
  Fe  Fe0  1  0.994433  0.302866  0.014259  1
  Fe  Fe1  1  0.976743  0.500000  0.025778  1
  Fe  Fe2  1  0.994433  0.697134  0.014259  1
  Fe  Fe3  1  0.971462  0.908983  0.988144  1
  Fe  Fe4  1  0.971462  0.091017  0.988144  1
  Fe  Fe5  1  0.523947  0.388040  0.477431  1
  Fe  Fe6  1  0.502436  0.797660  0.519478  1
  Fe  Fe7  1  0.523947  0.611960  0.477431  1
  Fe  Fe8  1  0.543296  0.000000  0.497672  1
  Fe  Fe9  1  0.502436  0.202340  0.519478  1
  O  O10  1  0.811752  0.401715  0.193965  1
  O  O11  1  0.811752  0.598285  0.193965  1
  O  O12  1  0.798310  0.000000  0.200490  1
  O  O13  1  0.702053  0.299092  0.704651  1
  O  O14  1  0.702053  0.700908  0.704651  1
  O  O15  1  0.685560  0.896893  0.684975  1
  O  O16  1  0.685560  0.103107  0.684975  1
  O  O17  1  0.302209  0.296873  0.305186  1
  O  O18  1  0.302209  0.703127  0.305186  1
  F  F19  1  0.800713  0.799365  0.197426  1
  F  F20  1  0.800713  0.200635  0.197426  1
  F  F21  1  0.695602  0.500000  0.688314  1
  F  F22  1  0.315977  0.500000  0.306884  1
  F  F23  1  0.295822  0.898957  0.294696  1
  F  F24  1  0.295822  0.101043  0.294696  1
  F  F25  1  0.198810  0.404898  0.806322  1
  F  F26  1  0.189124  0.799350  0.812273  1
  F  F27  1  0.198810  0.595102  0.806322  1
  F  F28  1  0.189124  0.200650  0.812273  1
  F  F29  1  0.213431  0.000000  0.783246  1
