# generated using pymatgen
data_LiMn3(BO3)3
_symmetry_space_group_name_H-M   'P 1'
_cell_length_a   5.24570500
_cell_length_b   7.76104908
_cell_length_c   9.83107321
_cell_angle_alpha   106.25801525
_cell_angle_beta   104.24108898
_cell_angle_gamma   89.51803406
_symmetry_Int_Tables_number   1
_chemical_formula_structural   LiMn3(BO3)3
_chemical_formula_sum   'Li2 Mn6 B6 O18'
_cell_volume   371.64390640
_cell_formula_units_Z   2
loop_
 _symmetry_equiv_pos_site_id
 _symmetry_equiv_pos_as_xyz
  1  'x, y, z'
loop_
 _atom_site_type_symbol
 _atom_site_label
 _atom_site_symmetry_multiplicity
 _atom_site_fract_x
 _atom_site_fract_y
 _atom_site_fract_z
 _atom_site_occupancy
  Li  Li0  1  0.219057  0.426577  0.247055  1
  Li  Li1  1  0.780943  0.573423  0.752945  1
  Mn  Mn2  1  0.777438  0.354431  0.383246  1
  Mn  Mn3  1  0.438030  0.053036  0.700928  1
  Mn  Mn4  1  0.861010  0.291085  0.967413  1
  Mn  Mn5  1  0.138990  0.708915  0.032587  1
  Mn  Mn6  1  0.561970  0.946964  0.299072  1
  Mn  Mn7  1  0.222562  0.645569  0.616754  1
  B  B8  1  0.005283  0.073901  0.168622  1
  B  B9  1  0.663767  0.574255  0.166337  1
  B  B10  1  0.313298  0.246721  0.485219  1
  B  B11  1  0.686702  0.753279  0.514781  1
  B  B12  1  0.336233  0.425745  0.833663  1
  B  B13  1  0.994717  0.926099  0.831378  1
  O  O14  1  0.791624  0.101512  0.224263  1
  O  O15  1  0.094596  0.190247  0.103450  1
  O  O16  1  0.834181  0.069578  0.810400  1
  O  O17  1  0.893974  0.532153  0.114892  1
  O  O18  1  0.534370  0.183205  0.435115  1
  O  O19  1  0.562811  0.473975  0.233224  1
  O  O20  1  0.214389  0.170181  0.571286  1
  O  O21  1  0.527345  0.720987  0.131957  1
  O  O22  1  0.196589  0.392504  0.440727  1
  O  O23  1  0.803411  0.607496  0.559273  1
  O  O24  1  0.472655  0.279013  0.868043  1
  O  O25  1  0.785611  0.829819  0.428714  1
  O  O26  1  0.437189  0.526025  0.766776  1
  O  O27  1  0.465630  0.816795  0.564885  1
  O  O28  1  0.106026  0.467847  0.885108  1
  O  O29  1  0.165819  0.930422  0.189600  1
  O  O30  1  0.905404  0.809753  0.896550  1
  O  O31  1  0.208376  0.898488  0.775737  1
