# generated using pymatgen
data_Li2V3P4H4O19
_symmetry_space_group_name_H-M   'P 1'
_cell_length_a   8.82335424
_cell_length_b   9.25708520
_cell_length_c   10.50889215
_cell_angle_alpha   90.00000000
_cell_angle_beta   114.21849094
_cell_angle_gamma   90.00000000
_symmetry_Int_Tables_number   1
_chemical_formula_structural   Li2V3P4H4O19
_chemical_formula_sum   'Li4 V6 P8 H8 O38'
_cell_volume   782.80560769
_cell_formula_units_Z   2
loop_
 _symmetry_equiv_pos_site_id
 _symmetry_equiv_pos_as_xyz
  1  'x, y, z'
loop_
 _atom_site_type_symbol
 _atom_site_label
 _atom_site_symmetry_multiplicity
 _atom_site_fract_x
 _atom_site_fract_y
 _atom_site_fract_z
 _atom_site_occupancy
  Li  Li0  1  0.245248  0.530034  0.004628  1
  Li  Li1  1  0.745248  0.469966  0.004628  1
  Li  Li2  1  0.790027  0.780288  0.540617  1
  Li  Li3  1  0.290027  0.219712  0.540617  1
  V  V4  1  0.328472  0.753255  0.210957  1
  V  V5  1  0.828472  0.246745  0.210957  1
  V  V6  1  0.733003  0.255649  0.504961  1
  V  V7  1  0.233003  0.744351  0.504961  1
  V  V8  1  0.183536  0.756276  0.821103  1
  V  V9  1  0.683536  0.243724  0.821103  1
  P  P10  1  0.540996  0.045356  0.237160  1
  P  P11  1  0.612622  0.500851  0.261727  1
  P  P12  1  0.040996  0.954644  0.237160  1
  P  P13  1  0.112622  0.499149  0.261727  1
  P  P14  1  0.885891  0.497257  0.736401  1
  P  P15  1  0.954554  0.044650  0.754951  1
  P  P16  1  0.385891  0.502743  0.736401  1
  P  P17  1  0.454554  0.955350  0.754951  1
  H  H18  1  0.275726  0.071481  0.140295  1
  H  H19  1  0.370016  0.403406  0.349172  1
  H  H20  1  0.775726  0.928519  0.140295  1
  H  H21  1  0.870016  0.596594  0.349172  1
  H  H22  1  0.127487  0.402346  0.647061  1
  H  H23  1  0.222560  0.068580  0.852550  1
  H  H24  1  0.627487  0.597654  0.647061  1
  H  H25  1  0.722560  0.931420  0.852550  1
  O  O26  1  0.243860  0.766224  0.997300  1
  O  O27  1  0.373993  0.124053  0.139714  1
  O  O28  1  0.743860  0.233776  0.997300  1
  O  O29  1  0.455972  0.588549  0.178120  1
  O  O30  1  0.653894  0.412993  0.155804  1
  O  O31  1  0.514091  0.880732  0.233601  1
  O  O32  1  0.671734  0.078406  0.178697  1
  O  O33  1  0.873993  0.875947  0.139714  1
  O  O34  1  0.955972  0.411451  0.178120  1
  O  O35  1  0.579076  0.406066  0.368338  1
  O  O36  1  0.598476  0.097808  0.387938  1
  O  O37  1  0.756523  0.614386  0.346432  1
  O  O38  1  0.153894  0.587007  0.155804  1
  O  O39  1  0.014091  0.119268  0.233601  1
  O  O40  1  0.171734  0.921594  0.178697  1
  O  O41  1  0.860958  0.268041  0.381839  1
  O  O42  1  0.079076  0.593934  0.368338  1
  O  O43  1  0.098476  0.902192  0.387938  1
  O  O44  1  0.632156  0.269573  0.615026  1
  O  O45  1  0.256523  0.385614  0.346432  1
  O  O46  1  0.744125  0.617442  0.658852  1
  O  O47  1  0.360958  0.731959  0.381839  1
  O  O48  1  0.892316  0.101526  0.605647  1
  O  O49  1  0.909103  0.406111  0.623108  1
  O  O50  1  0.132156  0.730427  0.615026  1
  O  O51  1  0.828780  0.074959  0.819309  1
  O  O52  1  0.978169  0.878932  0.748419  1
  O  O53  1  0.847124  0.408845  0.842851  1
  O  O54  1  0.244125  0.382558  0.658852  1
  O  O55  1  0.392316  0.898474  0.605647  1
  O  O56  1  0.409103  0.593889  0.623108  1
  O  O57  1  0.044262  0.582547  0.817253  1
  O  O58  1  0.123166  0.119550  0.853215  1
  O  O59  1  0.328780  0.925041  0.819309  1
  O  O60  1  0.478169  0.121068  0.748419  1
  O  O61  1  0.347124  0.591155  0.842851  1
  O  O62  1  0.544262  0.417453  0.817253  1
  O  O63  1  0.623166  0.880450  0.853215  1
