# generated using pymatgen
data_Fe4O3F5
_symmetry_space_group_name_H-M   'P 1'
_cell_length_a   4.81504640
_cell_length_b   6.16886336
_cell_length_c   10.09325150
_cell_angle_alpha   107.78376871
_cell_angle_beta   91.10300688
_cell_angle_gamma   89.80645538
_symmetry_Int_Tables_number   1
_chemical_formula_structural   Fe4O3F5
_chemical_formula_sum   'Fe8 O6 F10'
_cell_volume   285.42380836
_cell_formula_units_Z   2
loop_
 _symmetry_equiv_pos_site_id
 _symmetry_equiv_pos_as_xyz
  1  'x, y, z'
loop_
 _atom_site_type_symbol
 _atom_site_label
 _atom_site_symmetry_multiplicity
 _atom_site_fract_x
 _atom_site_fract_y
 _atom_site_fract_z
 _atom_site_occupancy
  Fe  Fe0  1  0.426819  0.626438  0.754524  1
  Fe  Fe1  1  0.533908  0.887275  0.271386  1
  Fe  Fe2  1  0.573181  0.373562  0.245476  1
  Fe  Fe3  1  0.466092  0.112725  0.728614  1
  Fe  Fe4  1  0.000000  0.500000  0.000000  1
  Fe  Fe5  1  0.998524  0.734065  0.499680  1
  Fe  Fe6  1  0.000000  0.000000  0.000000  1
  Fe  Fe7  1  0.001476  0.265935  0.500320  1
  O  O8  1  0.822447  0.309236  0.092310  1
  O  O9  1  0.714251  0.175654  0.350298  1
  O  O10  1  0.705908  0.676339  0.352277  1
  O  O11  1  0.285749  0.824346  0.649702  1
  O  O12  1  0.294092  0.323661  0.647723  1
  O  O13  1  0.177553  0.690764  0.907690  1
  F  F14  1  0.785966  0.554358  0.610089  1
  F  F15  1  0.797871  0.050421  0.600868  1
  F  F16  1  0.784964  0.786297  0.101364  1
  F  F17  1  0.686103  0.416236  0.843068  1
  F  F18  1  0.669557  0.922610  0.840436  1
  F  F19  1  0.330443  0.077390  0.159564  1
  F  F20  1  0.313897  0.583764  0.156932  1
  F  F21  1  0.202129  0.949579  0.399132  1
  F  F22  1  0.215036  0.213703  0.898636  1
  F  F23  1  0.214034  0.445642  0.389911  1
