# generated using pymatgen
data_Fe10O9F11
_symmetry_space_group_name_H-M   'P 1'
_cell_length_a   4.75187175
_cell_length_b   4.75985429
_cell_length_c   15.44768342
_cell_angle_alpha   90.31677415
_cell_angle_beta   89.98770550
_cell_angle_gamma   93.45560860
_symmetry_Int_Tables_number   1
_chemical_formula_structural   Fe10O9F11
_chemical_formula_sum   'Fe10 O9 F11'
_cell_volume   348.75844694
_cell_formula_units_Z   1
loop_
 _symmetry_equiv_pos_site_id
 _symmetry_equiv_pos_as_xyz
  1  'x, y, z'
loop_
 _atom_site_type_symbol
 _atom_site_label
 _atom_site_symmetry_multiplicity
 _atom_site_fract_x
 _atom_site_fract_y
 _atom_site_fract_z
 _atom_site_occupancy
  Fe  Fe0  1  0.996509  0.994675  0.996598  1
  Fe  Fe1  1  0.004099  0.004161  0.200704  1
  Fe  Fe2  1  0.978680  0.960162  0.408121  1
  Fe  Fe3  1  0.048767  0.000387  0.603463  1
  Fe  Fe4  1  0.025319  0.012026  0.793489  1
  Fe  Fe5  1  0.500128  0.499631  0.099119  1
  Fe  Fe6  1  0.470190  0.528194  0.499541  1
  Fe  Fe7  1  0.512959  0.505726  0.292158  1
  Fe  Fe8  1  0.457993  0.502379  0.702435  1
  Fe  Fe9  1  0.492722  0.486739  0.907024  1
  O  O10  1  0.188707  0.807285  0.498004  1
  O  O11  1  0.209185  0.803984  0.695235  1
  O  O12  1  0.296709  0.293870  0.004320  1
  O  O13  1  0.301771  0.299388  0.201063  1
  O  O14  1  0.315352  0.318902  0.595140  1
  O  O15  1  0.319083  0.320833  0.805873  1
  O  O16  1  0.700686  0.697270  0.001929  1
  O  O17  1  0.704720  0.702105  0.198435  1
  O  O18  1  0.677069  0.678696  0.396793  1
  F  F19  1  0.192390  0.807123  0.101429  1
  F  F20  1  0.187744  0.801919  0.301018  1
  F  F21  1  0.203475  0.797924  0.904973  1
  F  F22  1  0.287601  0.289583  0.394471  1
  F  F23  1  0.703990  0.709854  0.598656  1
  F  F24  1  0.704240  0.702831  0.803439  1
  F  F25  1  0.808220  0.190508  0.101408  1
  F  F26  1  0.801774  0.192011  0.497050  1
  F  F27  1  0.806523  0.185509  0.302321  1
  F  F28  1  0.802714  0.196229  0.903391  1
  F  F29  1  0.800680  0.210095  0.692404  1
