# generated using pymatgen
data_LiFePH2O5
_symmetry_space_group_name_H-M   'P 1'
_cell_length_a   5.08611687
_cell_length_b   8.21505712
_cell_length_c   11.02135811
_cell_angle_alpha   90.00000000
_cell_angle_beta   90.00000000
_cell_angle_gamma   90.00000000
_symmetry_Int_Tables_number   1
_chemical_formula_structural   LiFePH2O5
_chemical_formula_sum   'Li4 Fe4 P4 H8 O20'
_cell_volume   460.50254704
_cell_formula_units_Z   4
loop_
 _symmetry_equiv_pos_site_id
 _symmetry_equiv_pos_as_xyz
  1  'x, y, z'
loop_
 _atom_site_type_symbol
 _atom_site_label
 _atom_site_symmetry_multiplicity
 _atom_site_fract_x
 _atom_site_fract_y
 _atom_site_fract_z
 _atom_site_occupancy
  Li  Li0  1  0.739968  0.322709  0.184758  1
  Li  Li1  1  0.239968  0.822709  0.315242  1
  Li  Li2  1  0.739968  0.177291  0.684758  1
  Li  Li3  1  0.239968  0.677291  0.815242  1
  Fe  Fe4  1  0.245679  0.131133  0.120146  1
  Fe  Fe5  1  0.745679  0.631133  0.379854  1
  Fe  Fe6  1  0.245679  0.368867  0.620146  1
  Fe  Fe7  1  0.745679  0.868867  0.879854  1
  P  P8  1  0.742913  0.920891  0.173181  1
  P  P9  1  0.242913  0.420891  0.326819  1
  P  P10  1  0.742913  0.579109  0.673181  1
  P  P11  1  0.242913  0.079109  0.826819  1
  H  H12  1  0.409227  0.545938  0.016678  1
  H  H13  1  0.176389  0.670310  0.043454  1
  H  H14  1  0.676389  0.170310  0.456546  1
  H  H15  1  0.909227  0.045938  0.483322  1
  H  H16  1  0.409227  0.954062  0.516678  1
  H  H17  1  0.176389  0.829690  0.543454  1
  H  H18  1  0.676389  0.329690  0.956546  1
  H  H19  1  0.909227  0.454062  0.983322  1
  O  O20  1  0.742109  0.410527  0.014605  1
  O  O21  1  0.810477  0.827445  0.055099  1
  O  O22  1  0.859369  0.096469  0.167455  1
  O  O23  1  0.440145  0.935885  0.191795  1
  O  O24  1  0.363291  0.327305  0.217575  1
  O  O25  1  0.863291  0.827305  0.282425  1
  O  O26  1  0.940145  0.435885  0.308205  1
  O  O27  1  0.359369  0.596469  0.332545  1
  O  O28  1  0.310477  0.327445  0.444901  1
  O  O29  1  0.242109  0.910527  0.485395  1
  O  O30  1  0.742109  0.089473  0.514605  1
  O  O31  1  0.810477  0.672555  0.555099  1
  O  O32  1  0.859369  0.403531  0.667455  1
  O  O33  1  0.440145  0.564115  0.691795  1
  O  O34  1  0.363291  0.172695  0.717575  1
  O  O35  1  0.863291  0.672695  0.782425  1
  O  O36  1  0.940145  0.064115  0.808205  1
  O  O37  1  0.359369  0.903531  0.832545  1
  O  O38  1  0.310477  0.172555  0.944901  1
  O  O39  1  0.242109  0.589473  0.985395  1
