# generated using pymatgen
data_TcRh3
_symmetry_space_group_name_H-M   'P 1'
_cell_length_a   5.50350634
_cell_length_b   5.50350634
_cell_length_c   4.34122082
_cell_angle_alpha   90.00000000
_cell_angle_beta   90.00000000
_cell_angle_gamma   120.00000000
_symmetry_Int_Tables_number   1
_chemical_formula_structural   TcRh3
_chemical_formula_sum   'Tc2 Rh6'
_cell_volume   113.87318041
_cell_formula_units_Z   2
loop_
 _symmetry_equiv_pos_site_id
 _symmetry_equiv_pos_as_xyz
  1  'x, y, z'
loop_
 _atom_site_type_symbol
 _atom_site_label
 _atom_site_symmetry_multiplicity
 _atom_site_fract_x
 _atom_site_fract_y
 _atom_site_fract_z
 _atom_site_occupancy
  Tc  Tc0  1  0.333333  0.666667  0.750000  1
  Tc  Tc1  1  0.666667  0.333333  0.250000  1
  Rh  Rh2  1  0.167696  0.335392  0.250000  1
  Rh  Rh3  1  0.664608  0.832304  0.250000  1
  Rh  Rh4  1  0.167696  0.832304  0.250000  1
  Rh  Rh5  1  0.832304  0.664608  0.750000  1
  Rh  Rh6  1  0.335392  0.167696  0.750000  1
  Rh  Rh7  1  0.832304  0.167696  0.750000  1
