# generated using pymatgen
data_LiMnPO4
_symmetry_space_group_name_H-M   'P 1'
_cell_length_a   8.83485095
_cell_length_b   8.83485095
_cell_length_c   8.19649521
_cell_angle_alpha   90.00000000
_cell_angle_beta   90.00000000
_cell_angle_gamma   120.00000000
_symmetry_Int_Tables_number   1
_chemical_formula_structural   LiMnPO4
_chemical_formula_sum   'Li6 Mn6 P6 O24'
_cell_volume   554.06060904
_cell_formula_units_Z   6
loop_
 _symmetry_equiv_pos_site_id
 _symmetry_equiv_pos_as_xyz
  1  'x, y, z'
loop_
 _atom_site_type_symbol
 _atom_site_label
 _atom_site_symmetry_multiplicity
 _atom_site_fract_x
 _atom_site_fract_y
 _atom_site_fract_z
 _atom_site_occupancy
  Li  Li0  1  0.333333  0.666667  0.173197  1
  Li  Li1  1  0.333333  0.666667  0.688789  1
  Li  Li2  1  0.000000  0.000000  0.107006  1
  Li  Li3  1  0.000000  0.000000  0.607006  1
  Li  Li4  1  0.666667  0.333333  0.673197  1
  Li  Li5  1  0.666667  0.333333  0.188789  1
  Mn  Mn6  1  0.027494  0.686316  0.402886  1
  Mn  Mn7  1  0.313684  0.341178  0.402886  1
  Mn  Mn8  1  0.658822  0.972506  0.402886  1
  Mn  Mn9  1  0.341178  0.027494  0.902886  1
  Mn  Mn10  1  0.686316  0.658822  0.902886  1
  Mn  Mn11  1  0.972506  0.313684  0.902886  1
  P  P12  1  0.040170  0.684970  0.014847  1
  P  P13  1  0.315030  0.355200  0.014847  1
  P  P14  1  0.644800  0.959830  0.014847  1
  P  P15  1  0.355200  0.040170  0.514847  1
  P  P16  1  0.684970  0.644800  0.514847  1
  P  P17  1  0.959830  0.315030  0.514847  1
  O  O18  1  0.151144  0.930605  0.516041  1
  O  O19  1  0.147948  0.729546  0.176369  1
  O  O20  1  0.174641  0.754522  0.872838  1
  O  O21  1  0.091391  0.513842  0.505348  1
  O  O22  1  0.422450  0.908609  0.505348  1
  O  O23  1  0.069395  0.220539  0.516041  1
  O  O24  1  0.245478  0.420119  0.872838  1
  O  O25  1  0.270454  0.418402  0.176369  1
  O  O26  1  0.220539  0.151144  0.016041  1
  O  O27  1  0.581598  0.852052  0.176369  1
  O  O28  1  0.579881  0.825359  0.872838  1
  O  O29  1  0.486158  0.577550  0.505348  1
  O  O30  1  0.513842  0.422450  0.005348  1
  O  O31  1  0.420119  0.174641  0.372838  1
  O  O32  1  0.418402  0.147948  0.676369  1
  O  O33  1  0.779461  0.848856  0.516041  1
  O  O34  1  0.729546  0.581598  0.676369  1
  O  O35  1  0.754522  0.579881  0.372838  1
  O  O36  1  0.930605  0.779461  0.016041  1
  O  O37  1  0.577550  0.091391  0.005348  1
  O  O38  1  0.908609  0.486158  0.005348  1
  O  O39  1  0.825359  0.245478  0.372838  1
  O  O40  1  0.852052  0.270454  0.676369  1
  O  O41  1  0.848856  0.069395  0.016041  1
