# generated using pymatgen
data_Li3Ni(SbO3)4
_symmetry_space_group_name_H-M   'P 1'
_cell_length_a   5.23350330
_cell_length_b   5.57468197
_cell_length_c   7.64770938
_cell_angle_alpha   94.79935610
_cell_angle_beta   90.00318582
_cell_angle_gamma   90.10486203
_symmetry_Int_Tables_number   1
_chemical_formula_structural   Li3Ni(SbO3)4
_chemical_formula_sum   'Li3 Ni1 Sb4 O12'
_cell_volume   222.34012151
_cell_formula_units_Z   1
loop_
 _symmetry_equiv_pos_site_id
 _symmetry_equiv_pos_as_xyz
  1  'x, y, z'
loop_
 _atom_site_type_symbol
 _atom_site_label
 _atom_site_symmetry_multiplicity
 _atom_site_fract_x
 _atom_site_fract_y
 _atom_site_fract_z
 _atom_site_occupancy
  Li  Li0  1  0.500709  0.062438  0.212986  1
  Li  Li1  1  0.999918  0.566684  0.215616  1
  Li  Li2  1  0.499964  0.060051  0.720627  1
  Ni  Ni3  1  0.000793  0.592547  0.707654  1
  Sb  Sb4  1  0.999554  0.994191  0.009087  1
  Sb  Sb5  1  0.499767  0.485777  0.500600  1
  Sb  Sb6  1  0.996564  0.998338  0.499822  1
  Sb  Sb7  1  0.503185  0.487061  0.006862  1
  O  O8  1  0.299319  0.784530  0.589260  1
  O  O9  1  0.136819  0.962881  0.254955  1
  O  O10  1  0.328718  0.158387  0.951224  1
  O  O11  1  0.190662  0.298614  0.590997  1
  O  O12  1  0.803997  0.290560  0.089586  1
  O  O13  1  0.363633  0.464834  0.255036  1
  O  O14  1  0.643535  0.457284  0.757954  1
  O  O15  1  0.172717  0.656099  0.948651  1
  O  O16  1  0.834949  0.650464  0.458460  1
  O  O17  1  0.698328  0.787370  0.089277  1
  O  O18  1  0.867206  0.949459  0.759350  1
  O  O19  1  0.659666  0.151634  0.452393  1
