# generated using pymatgen
data_Cs2As2Pd
_symmetry_space_group_name_H-M   'P 1'
_cell_length_a   8.46288809
_cell_length_b   8.46288809
_cell_length_c   6.47876127
_cell_angle_alpha   90.00000000
_cell_angle_beta   90.00000000
_cell_angle_gamma   129.72240578
_symmetry_Int_Tables_number   1
_chemical_formula_structural   Cs2As2Pd
_chemical_formula_sum   'Cs4 As4 Pd2'
_cell_volume   356.89466003
_cell_formula_units_Z   2
loop_
 _symmetry_equiv_pos_site_id
 _symmetry_equiv_pos_as_xyz
  1  'x, y, z'
loop_
 _atom_site_type_symbol
 _atom_site_label
 _atom_site_symmetry_multiplicity
 _atom_site_fract_x
 _atom_site_fract_y
 _atom_site_fract_z
 _atom_site_occupancy
  Cs  Cs0  1  0.792207  0.207793  0.250000  1
  Cs  Cs1  1  0.207793  0.792207  0.750000  1
  Cs  Cs2  1  0.416037  0.583963  0.250000  1
  Cs  Cs3  1  0.583963  0.416037  0.750000  1
  As  As4  1  0.068725  0.269295  0.750000  1
  As  As5  1  0.931275  0.730705  0.250000  1
  As  As6  1  0.269295  0.068725  0.250000  1
  As  As7  1  0.730705  0.931275  0.750000  1
  Pd  Pd8  1  0.000000  0.000000  0.000000  1
  Pd  Pd9  1  0.000000  0.000000  0.500000  1
