# generated using pymatgen
data_Mn12O5F19
_symmetry_space_group_name_H-M   'P 1'
_cell_length_a   4.84640213
_cell_length_b   5.87420332
_cell_length_c   16.00113799
_cell_angle_alpha   90.28247529
_cell_angle_beta   90.17530046
_cell_angle_gamma   91.34443641
_symmetry_Int_Tables_number   1
_chemical_formula_structural   Mn12O5F19
_chemical_formula_sum   'Mn12 O5 F19'
_cell_volume   455.39918676
_cell_formula_units_Z   1
loop_
 _symmetry_equiv_pos_site_id
 _symmetry_equiv_pos_as_xyz
  1  'x, y, z'
loop_
 _atom_site_type_symbol
 _atom_site_label
 _atom_site_symmetry_multiplicity
 _atom_site_fract_x
 _atom_site_fract_y
 _atom_site_fract_z
 _atom_site_occupancy
  Mn  Mn0  1  0.033414  0.808074  0.576628  1
  Mn  Mn1  1  0.983072  0.144420  0.747162  1
  Mn  Mn2  1  0.009561  0.830285  0.906384  1
  Mn  Mn3  1  0.983833  0.839302  0.254316  1
  Mn  Mn4  1  0.996517  0.161238  0.418746  1
  Mn  Mn5  1  0.014540  0.156114  0.091419  1
  Mn  Mn6  1  0.505788  0.648055  0.412299  1
  Mn  Mn7  1  0.487292  0.669390  0.083060  1
  Mn  Mn8  1  0.502869  0.673688  0.761710  1
  Mn  Mn9  1  0.500747  0.351216  0.916001  1
  Mn  Mn10  1  0.491051  0.364077  0.583027  1
  Mn  Mn11  1  0.485373  0.341058  0.248201  1
  O  O12  1  0.218653  0.110697  0.200344  1
  O  O13  1  0.292989  0.625375  0.862744  1
  O  O14  1  0.306309  0.603022  0.518886  1
  O  O15  1  0.699761  0.611083  0.304173  1
  O  O16  1  0.786790  0.875000  0.806254  1
  F  F17  1  0.240556  0.895044  0.690188  1
  F  F18  1  0.223113  0.879228  0.363960  1
  F  F19  1  0.219477  0.884425  0.018496  1
  F  F20  1  0.238295  0.121467  0.856455  1
  F  F21  1  0.239455  0.111879  0.528656  1
  F  F22  1  0.268110  0.404417  0.697702  1
  F  F23  1  0.266931  0.383481  0.358049  1
  F  F24  1  0.240164  0.607548  0.192183  1
  F  F25  1  0.268688  0.382273  0.028791  1
  F  F26  1  0.745403  0.609516  0.977111  1
  F  F27  1  0.738314  0.379380  0.806274  1
  F  F28  1  0.726287  0.627414  0.649247  1
  F  F29  1  0.743595  0.394425  0.475001  1
  F  F30  1  0.713420  0.384619  0.139751  1
  F  F31  1  0.771747  0.878913  0.471051  1
  F  F32  1  0.760423  0.132618  0.631610  1
  F  F33  1  0.780913  0.112014  0.974632  1
  F  F34  1  0.769088  0.889191  0.140804  1
  F  F35  1  0.747464  0.110052  0.308683  1
