# generated using pymatgen
data_NaAl6Fe3Si6B3H3O30F
_symmetry_space_group_name_H-M   'P 1'
_cell_length_a   9.59169280
_cell_length_b   9.59169280
_cell_length_c   9.59169280
_cell_angle_alpha   113.84691799
_cell_angle_beta   113.84691799
_cell_angle_gamma   113.84691799
_symmetry_Int_Tables_number   1
_chemical_formula_structural   NaAl6Fe3Si6B3H3O30F
_chemical_formula_sum   'Na1 Al6 Fe3 Si6 B3 H3 O30 F1'
_cell_volume   542.16019059
_cell_formula_units_Z   1
loop_
 _symmetry_equiv_pos_site_id
 _symmetry_equiv_pos_as_xyz
  1  'x, y, z'
loop_
 _atom_site_type_symbol
 _atom_site_label
 _atom_site_symmetry_multiplicity
 _atom_site_fract_x
 _atom_site_fract_y
 _atom_site_fract_z
 _atom_site_occupancy
  Na  Na0  1  0.219193  0.219193  0.219193  1
  Al  Al1  1  0.572860  0.349263  0.906405  1
  Al  Al2  1  0.906405  0.572860  0.349263  1
  Al  Al3  1  0.349263  0.906405  0.572860  1
  Al  Al4  1  0.572860  0.906405  0.349263  1
  Al  Al5  1  0.349263  0.572860  0.906405  1
  Al  Al6  1  0.906405  0.349263  0.572860  1
  Fe  Fe7  1  0.743648  0.576693  0.576693  1
  Fe  Fe8  1  0.576693  0.743648  0.576693  1
  Fe  Fe9  1  0.576693  0.576693  0.743648  1
  Si  Si10  1  0.994072  0.805322  0.187735  1
  Si  Si11  1  0.187735  0.994072  0.805322  1
  Si  Si12  1  0.805322  0.187735  0.994072  1
  Si  Si13  1  0.994072  0.187735  0.805322  1
  Si  Si14  1  0.805322  0.994072  0.187735  1
  Si  Si15  1  0.187735  0.805322  0.994072  1
  B  B16  1  0.226575  0.560193  0.560193  1
  B  B17  1  0.560193  0.226575  0.560193  1
  B  B18  1  0.560193  0.560193  0.226575  1
  H  H19  1  0.642834  0.245066  0.245066  1
  H  H20  1  0.245066  0.642834  0.245066  1
  H  H21  1  0.245066  0.245066  0.642834  1
  O  O22  1  0.342087  0.528304  0.528303  1
  O  O23  1  0.528304  0.342087  0.528304  1
  O  O24  1  0.528304  0.528304  0.342087  1
  O  O25  1  0.781934  0.375594  0.375594  1
  O  O26  1  0.375594  0.781934  0.375594  1
  O  O27  1  0.375594  0.375594  0.781934  1
  O  O28  1  0.880705  0.160213  0.160213  1
  O  O29  1  0.160213  0.880705  0.160213  1
  O  O30  1  0.160213  0.160213  0.880705  1
  O  O31  1  0.273166  0.993169  0.993169  1
  O  O32  1  0.993169  0.273166  0.993169  1
  O  O33  1  0.993169  0.993169  0.273166  1
  O  O34  1  0.765451  0.585356  0.969220  1
  O  O35  1  0.969220  0.765451  0.585356  1
  O  O36  1  0.585356  0.969220  0.765451  1
  O  O37  1  0.765451  0.969220  0.585356  1
  O  O38  1  0.585356  0.765451  0.969220  1
  O  O39  1  0.969220  0.585356  0.765451  1
  O  O40  1  0.078736  0.793006  0.364178  1
  O  O41  1  0.364178  0.078736  0.793006  1
  O  O42  1  0.793006  0.364178  0.078736  1
  O  O43  1  0.078736  0.364178  0.793006  1
  O  O44  1  0.793006  0.078736  0.364178  1
  O  O45  1  0.364178  0.793006  0.078736  1
  O  O46  1  0.502606  0.168369  0.651842  1
  O  O47  1  0.651842  0.502606  0.168369  1
  O  O48  1  0.168369  0.651842  0.502606  1
  O  O49  1  0.502606  0.651842  0.168369  1
  O  O50  1  0.168369  0.502606  0.651842  1
  O  O51  1  0.651842  0.168369  0.502606  1
  F  F52  1  0.849422  0.849422  0.849422  1
