# generated using pymatgen
data_Fe6OF11
_symmetry_space_group_name_H-M   'P 1'
_cell_length_a   5.81995565
_cell_length_b   5.81995565
_cell_length_c   7.60230690
_cell_angle_alpha   72.81298718
_cell_angle_beta   107.18701282
_cell_angle_gamma   108.37190850
_symmetry_Int_Tables_number   1
_chemical_formula_structural   Fe6OF11
_chemical_formula_sum   'Fe6 O1 F11'
_cell_volume   227.57762614
_cell_formula_units_Z   1
loop_
 _symmetry_equiv_pos_site_id
 _symmetry_equiv_pos_as_xyz
  1  'x, y, z'
loop_
 _atom_site_type_symbol
 _atom_site_label
 _atom_site_symmetry_multiplicity
 _atom_site_fract_x
 _atom_site_fract_y
 _atom_site_fract_z
 _atom_site_occupancy
  Fe  Fe0  1  0.357985  0.659597  0.847269  1
  Fe  Fe1  1  0.673643  0.335234  0.668934  1
  Fe  Fe2  1  0.335234  0.673643  0.331066  1
  Fe  Fe3  1  0.659597  0.357985  0.152731  1
  Fe  Fe4  1  0.002282  0.002282  0.500000  1
  Fe  Fe5  1  0.978835  0.978835  0.000000  1
  O  O6  1  0.690798  0.690798  0.000000  1
  F  F7  1  0.983733  0.631286  0.674868  1
  F  F8  1  0.631286  0.983733  0.325132  1
  F  F9  1  0.104720  0.905393  0.305132  1
  F  F10  1  0.761374  0.236488  0.969171  1
  F  F11  1  0.430203  0.563462  0.633338  1
  F  F12  1  0.236488  0.761374  0.030829  1
  F  F13  1  0.563462  0.430203  0.366662  1
  F  F14  1  0.905393  0.104720  0.694868  1
  F  F15  1  0.023193  0.375827  0.326396  1
  F  F16  1  0.375827  0.023193  0.673604  1
  F  F17  1  0.285948  0.285948  0.000000  1
