# generated using pymatgen
data_Zn3In2O6
_symmetry_space_group_name_H-M   'P 1'
_cell_length_a   5.91031636
_cell_length_b   6.83546361
_cell_length_c   14.51476483
_cell_angle_alpha   96.88331688
_cell_angle_beta   94.02393666
_cell_angle_gamma   89.91008438
_symmetry_Int_Tables_number   1
_chemical_formula_structural   Zn3In2O6
_chemical_formula_sum   'Zn12 In8 O24'
_cell_volume   580.71735081
_cell_formula_units_Z   4
loop_
 _symmetry_equiv_pos_site_id
 _symmetry_equiv_pos_as_xyz
  1  'x, y, z'
loop_
 _atom_site_type_symbol
 _atom_site_label
 _atom_site_symmetry_multiplicity
 _atom_site_fract_x
 _atom_site_fract_y
 _atom_site_fract_z
 _atom_site_occupancy
  Zn  Zn0  1  0.129640  0.193035  0.785729  1
  Zn  Zn1  1  0.062462  0.101571  0.404493  1
  Zn  Zn2  1  0.627526  0.448813  0.785294  1
  Zn  Zn3  1  0.566996  0.350712  0.405486  1
  Zn  Zn4  1  0.868821  0.307730  0.211410  1
  Zn  Zn5  1  0.134131  0.700078  0.787488  1
  Zn  Zn6  1  0.432891  0.658364  0.605207  1
  Zn  Zn7  1  0.371849  0.553257  0.214873  1
  Zn  Zn8  1  0.633082  0.943094  0.785114  1
  Zn  Zn9  1  0.569957  0.851378  0.407878  1
  Zn  Zn10  1  0.932366  0.894944  0.605330  1
  Zn  Zn11  1  0.868022  0.799713  0.214881  1
  In  In12  1  0.996564  0.999231  0.997979  1
  In  In13  1  0.433267  0.138059  0.591888  1
  In  In14  1  0.500386  0.250654  0.997416  1
  In  In15  1  0.369826  0.055782  0.222798  1
  In  In16  1  0.001198  0.500412  0.000139  1
  In  In17  1  0.931334  0.405106  0.594241  1
  In  In18  1  0.071555  0.606741  0.406176  1
  In  In19  1  0.501035  0.747445  0.998482  1
  O  O20  1  0.084936  0.131579  0.576372  1
  O  O21  1  0.154140  0.230449  0.924964  1
  O  O22  1  0.458553  0.185144  0.745470  1
  O  O23  1  0.027356  0.066885  0.254010  1
  O  O24  1  0.399987  0.105159  0.420240  1
  O  O25  1  0.345293  0.019475  0.074240  1
  O  O26  1  0.580200  0.403680  0.575352  1
  O  O27  1  0.656341  0.480887  0.924279  1
  O  O28  1  0.958756  0.438612  0.745659  1
  O  O29  1  0.552080  0.321303  0.255160  1
  O  O30  1  0.900914  0.352739  0.433640  1
  O  O31  1  0.845499  0.268112  0.072871  1
  O  O32  1  0.105796  0.655327  0.568395  1
  O  O33  1  0.154451  0.731306  0.926353  1
  O  O34  1  0.044209  0.560721  0.252002  1
  O  O35  1  0.455890  0.687566  0.747755  1
  O  O36  1  0.347778  0.517653  0.074284  1
  O  O37  1  0.418570  0.603772  0.416283  1
  O  O38  1  0.607156  0.878807  0.573173  1
  O  O39  1  0.651080  0.980179  0.924858  1
  O  O40  1  0.958560  0.934903  0.748178  1
  O  O41  1  0.546982  0.804661  0.253235  1
  O  O42  1  0.896660  0.865479  0.416383  1
  O  O43  1  0.845905  0.769484  0.074548  1
