# generated using pymatgen
data_CsNa2Be6(BO3)5
_symmetry_space_group_name_H-M   'P 1'
_cell_length_a   7.34385738
_cell_length_b   7.34385738
_cell_length_c   10.87228960
_cell_angle_alpha   77.62830434
_cell_angle_beta   102.37169566
_cell_angle_gamma   144.72615942
_symmetry_Int_Tables_number   1
_chemical_formula_structural   CsNa2Be6(BO3)5
_chemical_formula_sum   'Cs1 Na2 Be6 B5 O15'
_cell_volume   329.94953629
_cell_formula_units_Z   1
loop_
 _symmetry_equiv_pos_site_id
 _symmetry_equiv_pos_as_xyz
  1  'x, y, z'
loop_
 _atom_site_type_symbol
 _atom_site_label
 _atom_site_symmetry_multiplicity
 _atom_site_fract_x
 _atom_site_fract_y
 _atom_site_fract_z
 _atom_site_occupancy
  Cs  Cs0  1  0.540381  0.540381  0.000000  1
  Na  Na1  1  0.827592  0.203389  0.456419  1
  Na  Na2  1  0.203389  0.827592  0.543581  1
  Be  Be3  1  0.295132  0.810722  0.077496  1
  Be  Be4  1  0.810722  0.295132  0.922504  1
  Be  Be5  1  0.399158  0.678460  0.296919  1
  Be  Be6  1  0.678460  0.399158  0.703081  1
  Be  Be7  1  0.030361  0.049516  0.364797  1
  Be  Be8  1  0.049516  0.030361  0.635203  1
  B  B9  1  0.188393  0.853321  0.275264  1
  B  B10  1  0.853321  0.188393  0.724736  1
  B  B11  1  0.889089  0.208562  0.163682  1
  B  B12  1  0.208562  0.889089  0.836318  1
  B  B13  1  0.545837  0.545837  0.500000  1
  O  O14  1  0.576456  0.904158  0.165757  1
  O  O15  1  0.904158  0.576456  0.834243  1
  O  O16  1  0.995429  0.420864  0.061956  1
  O  O17  1  0.420864  0.995429  0.938044  1
  O  O18  1  0.274015  0.746661  0.355191  1
  O  O19  1  0.746661  0.274015  0.644809  1
  O  O20  1  0.236736  0.236736  0.500000  1
  O  O21  1  0.651626  0.756968  0.398041  1
  O  O22  1  0.756968  0.651626  0.601959  1
  O  O23  1  0.098816  0.303135  0.264772  1
  O  O24  1  0.303135  0.098816  0.735228  1
  O  O25  1  0.196011  0.887370  0.146846  1
  O  O26  1  0.887370  0.196011  0.853154  1
  O  O27  1  0.102404  0.917883  0.335832  1
  O  O28  1  0.917883  0.102404  0.664168  1
