# generated using pymatgen
data_Fe3OF5
_symmetry_space_group_name_H-M   'P 1'
_cell_length_a   4.80734313
_cell_length_b   5.80720144
_cell_length_c   8.07526421
_cell_angle_alpha   92.59652845
_cell_angle_beta   90.64275090
_cell_angle_gamma   90.16235841
_symmetry_Int_Tables_number   1
_chemical_formula_structural   Fe3OF5
_chemical_formula_sum   'Fe6 O2 F10'
_cell_volume   225.19196131
_cell_formula_units_Z   2
loop_
 _symmetry_equiv_pos_site_id
 _symmetry_equiv_pos_as_xyz
  1  'x, y, z'
loop_
 _atom_site_type_symbol
 _atom_site_label
 _atom_site_symmetry_multiplicity
 _atom_site_fract_x
 _atom_site_fract_y
 _atom_site_fract_z
 _atom_site_occupancy
  Fe  Fe0  1  0.504235  0.838003  0.328691  1
  Fe  Fe1  1  0.493992  0.484151  0.997954  1
  Fe  Fe2  1  0.462448  0.177598  0.682281  1
  Fe  Fe3  1  0.016257  0.331789  0.352187  1
  Fe  Fe4  1  0.014466  0.655328  0.663007  1
  Fe  Fe5  1  0.005375  0.011886  0.988753  1
  O  O6  1  0.206072  0.363573  0.554331  1
  O  O7  1  0.310696  0.193471  0.893821  1
  F  F8  1  0.189500  0.042421  0.246013  1
  F  F9  1  0.197398  0.696574  0.900238  1
  F  F10  1  0.288586  0.533959  0.234891  1
  F  F11  1  0.308142  0.878068  0.567875  1
  F  F12  1  0.702076  0.139898  0.438459  1
  F  F13  1  0.703736  0.456475  0.757714  1
  F  F14  1  0.700773  0.800775  0.095797  1
  F  F15  1  0.787551  0.963790  0.751943  1
  F  F16  1  0.802337  0.626361  0.421015  1
  F  F17  1  0.806360  0.305882  0.125024  1
