# generated using pymatgen
data_CaBiO3
_symmetry_space_group_name_H-M   'P 1'
_cell_length_a   6.16655397
_cell_length_b   6.16655397
_cell_length_c   6.16655397
_cell_angle_alpha   57.57340294
_cell_angle_beta   57.57340294
_cell_angle_gamma   57.57340294
_symmetry_Int_Tables_number   1
_chemical_formula_structural   CaBiO3
_chemical_formula_sum   'Ca2 Bi2 O6'
_cell_volume   156.56027312
_cell_formula_units_Z   2
loop_
 _symmetry_equiv_pos_site_id
 _symmetry_equiv_pos_as_xyz
  1  'x, y, z'
loop_
 _atom_site_type_symbol
 _atom_site_label
 _atom_site_symmetry_multiplicity
 _atom_site_fract_x
 _atom_site_fract_y
 _atom_site_fract_z
 _atom_site_occupancy
  Ca  Ca0  1  0.137614  0.137614  0.137614  1
  Ca  Ca1  1  0.862386  0.862386  0.862386  1
  Bi  Bi2  1  0.353264  0.353264  0.353264  1
  Bi  Bi3  1  0.646736  0.646736  0.646736  1
  O  O4  1  0.732955  0.040360  0.463330  1
  O  O5  1  0.040360  0.463330  0.732955  1
  O  O6  1  0.463330  0.732955  0.040360  1
  O  O7  1  0.536670  0.267045  0.959640  1
  O  O8  1  0.959640  0.536670  0.267045  1
  O  O9  1  0.267045  0.959640  0.536670  1
