# generated using pymatgen
data_ScS2
_symmetry_space_group_name_H-M   'P 1'
_cell_length_a   6.06186119
_cell_length_b   6.06186119
_cell_length_c   3.77136732
_cell_angle_alpha   90.00000000
_cell_angle_beta   90.00000000
_cell_angle_gamma   90.00000000
_symmetry_Int_Tables_number   1
_chemical_formula_structural   ScS2
_chemical_formula_sum   'Sc2 S4'
_cell_volume   138.58327106
_cell_formula_units_Z   2
loop_
 _symmetry_equiv_pos_site_id
 _symmetry_equiv_pos_as_xyz
  1  'x, y, z'
loop_
 _atom_site_type_symbol
 _atom_site_label
 _atom_site_symmetry_multiplicity
 _atom_site_fract_x
 _atom_site_fract_y
 _atom_site_fract_z
 _atom_site_occupancy
  Sc  Sc0  1  0.000000  0.000000  0.000000  1
  Sc  Sc1  1  0.500000  0.500000  0.500000  1
  S  S2  1  0.296809  0.296809  0.000000  1
  S  S3  1  0.703191  0.703191  0.000000  1
  S  S4  1  0.203191  0.796809  0.500000  1
  S  S5  1  0.796809  0.203191  0.500000  1
