# generated using pymatgen
data_SrGaSn
_symmetry_space_group_name_H-M   'P 1'
_cell_length_a   4.63322887
_cell_length_b   4.63322887
_cell_length_c   18.79750939
_cell_angle_alpha   90.00000000
_cell_angle_beta   90.00000000
_cell_angle_gamma   120.00000000
_symmetry_Int_Tables_number   1
_chemical_formula_structural   SrGaSn
_chemical_formula_sum   'Sr4 Ga4 Sn4'
_cell_volume   349.46078591
_cell_formula_units_Z   4
loop_
 _symmetry_equiv_pos_site_id
 _symmetry_equiv_pos_as_xyz
  1  'x, y, z'
loop_
 _atom_site_type_symbol
 _atom_site_label
 _atom_site_symmetry_multiplicity
 _atom_site_fract_x
 _atom_site_fract_y
 _atom_site_fract_z
 _atom_site_occupancy
  Sr  Sr0  1  0.000000  0.000000  0.000000  1
  Sr  Sr1  1  0.000000  0.000000  0.250000  1
  Sr  Sr2  1  0.000000  0.000000  0.500000  1
  Sr  Sr3  1  0.000000  0.000000  0.750000  1
  Ga  Ga4  1  0.666667  0.333333  0.838453  1
  Ga  Ga5  1  0.333333  0.666667  0.338453  1
  Ga  Ga6  1  0.666667  0.333333  0.661547  1
  Ga  Ga7  1  0.333333  0.666667  0.161547  1
  Sn  Sn8  1  0.333333  0.666667  0.616047  1
  Sn  Sn9  1  0.666667  0.333333  0.116047  1
  Sn  Sn10  1  0.666667  0.333333  0.383953  1
  Sn  Sn11  1  0.333333  0.666667  0.883953  1
