# generated using pymatgen
data_CaSnS3
_symmetry_space_group_name_H-M   'P 1'
_cell_length_a   6.71126165
_cell_length_b   6.71126165
_cell_length_c   6.35131181
_cell_angle_alpha   90.00000000
_cell_angle_beta   90.00000000
_cell_angle_gamma   120.00000000
_symmetry_Int_Tables_number   1
_chemical_formula_structural   CaSnS3
_chemical_formula_sum   'Ca2 Sn2 S6'
_cell_volume   247.74357936
_cell_formula_units_Z   2
loop_
 _symmetry_equiv_pos_site_id
 _symmetry_equiv_pos_as_xyz
  1  'x, y, z'
loop_
 _atom_site_type_symbol
 _atom_site_label
 _atom_site_symmetry_multiplicity
 _atom_site_fract_x
 _atom_site_fract_y
 _atom_site_fract_z
 _atom_site_occupancy
  Ca  Ca0  1  0.666667  0.333333  0.250000  1
  Ca  Ca1  1  0.333333  0.666667  0.750000  1
  Sn  Sn2  1  0.000000  0.000000  0.000000  1
  Sn  Sn3  1  0.000000  0.000000  0.500000  1
  S  S4  1  0.172134  0.827866  0.250000  1
  S  S5  1  0.655731  0.827866  0.250000  1
  S  S6  1  0.172134  0.344269  0.250000  1
  S  S7  1  0.827866  0.172134  0.750000  1
  S  S8  1  0.344269  0.172134  0.750000  1
  S  S9  1  0.827866  0.655731  0.750000  1
