# generated using pymatgen
data_NaAlPO4F
_symmetry_space_group_name_H-M   'P 1'
_cell_length_a   5.27894034
_cell_length_b   5.27894034
_cell_length_c   6.99412688
_cell_angle_alpha   74.49398251
_cell_angle_beta   105.50601749
_cell_angle_gamma   76.12197260
_symmetry_Int_Tables_number   1
_chemical_formula_structural   NaAlPO4F
_chemical_formula_sum   'Na2 Al2 P2 O8 F2'
_cell_volume   170.50092119
_cell_formula_units_Z   2
loop_
 _symmetry_equiv_pos_site_id
 _symmetry_equiv_pos_as_xyz
  1  'x, y, z'
loop_
 _atom_site_type_symbol
 _atom_site_label
 _atom_site_symmetry_multiplicity
 _atom_site_fract_x
 _atom_site_fract_y
 _atom_site_fract_z
 _atom_site_occupancy
  Na  Na0  1  0.331963  0.331963  0.250000  1
  Na  Na1  1  0.668037  0.668037  0.750000  1
  Al  Al2  1  0.000000  0.000000  0.500000  1
  Al  Al3  1  0.000000  0.000000  0.000000  1
  P  P4  1  0.683020  0.683020  0.250000  1
  P  P5  1  0.316980  0.316980  0.750000  1
  O  O6  1  0.117307  0.301727  0.878912  1
  O  O7  1  0.301727  0.117307  0.621088  1
  O  O8  1  0.621820  0.238125  0.899566  1
  O  O9  1  0.238125  0.621820  0.600434  1
  O  O10  1  0.378180  0.761875  0.100434  1
  O  O11  1  0.761875  0.378180  0.399566  1
  O  O12  1  0.882693  0.698273  0.121088  1
  O  O13  1  0.698273  0.882693  0.378912  1
  F  F14  1  0.930468  0.930468  0.750000  1
  F  F15  1  0.069532  0.069532  0.250000  1
