# generated using pymatgen
data_NiP6(WO8)3
_symmetry_space_group_name_H-M   'P 1'
_cell_length_a   8.92356929
_cell_length_b   8.92356929
_cell_length_c   8.92356929
_cell_angle_alpha   58.78011539
_cell_angle_beta   58.78011539
_cell_angle_gamma   58.78011539
_symmetry_Int_Tables_number   1
_chemical_formula_structural   NiP6(WO8)3
_chemical_formula_sum   'Ni1 P6 W3 O24'
_cell_volume   488.45989355
_cell_formula_units_Z   1
loop_
 _symmetry_equiv_pos_site_id
 _symmetry_equiv_pos_as_xyz
  1  'x, y, z'
loop_
 _atom_site_type_symbol
 _atom_site_label
 _atom_site_symmetry_multiplicity
 _atom_site_fract_x
 _atom_site_fract_y
 _atom_site_fract_z
 _atom_site_occupancy
  Ni  Ni0  1  0.141361  0.141361  0.141361  1
  P  P1  1  0.248327  0.530123  0.965367  1
  P  P2  1  0.965367  0.248327  0.530123  1
  P  P3  1  0.530123  0.965367  0.248327  1
  P  P4  1  0.460004  0.037111  0.754438  1
  P  P5  1  0.037111  0.754438  0.460004  1
  P  P6  1  0.754438  0.460004  0.037111  1
  W  W7  1  0.858157  0.858157  0.858157  1
  W  W8  1  0.643615  0.643615  0.643615  1
  W  W9  1  0.358187  0.358187  0.358187  1
  O  O10  1  0.702943  0.501135  0.875116  1
  O  O11  1  0.501135  0.875116  0.702943  1
  O  O12  1  0.076858  0.712795  0.943633  1
  O  O13  1  0.875116  0.702943  0.501135  1
  O  O14  1  0.416424  0.575274  0.789781  1
  O  O15  1  0.230024  0.363909  0.986280  1
  O  O16  1  0.943633  0.076858  0.712795  1
  O  O17  1  0.789781  0.416424  0.575274  1
  O  O18  1  0.575274  0.789781  0.416424  1
  O  O19  1  0.636141  0.012294  0.774011  1
  O  O20  1  0.286833  0.057900  0.916684  1
  O  O21  1  0.012294  0.774011  0.636141  1
  O  O22  1  0.986280  0.230024  0.363909  1
  O  O23  1  0.712795  0.943633  0.076858  1
  O  O24  1  0.363909  0.986280  0.230024  1
  O  O25  1  0.441709  0.213501  0.569683  1
  O  O26  1  0.213501  0.569683  0.441709  1
  O  O27  1  0.057900  0.916684  0.286833  1
  O  O28  1  0.774011  0.636141  0.012294  1
  O  O29  1  0.569683  0.441709  0.213501  1
  O  O30  1  0.141232  0.278777  0.500373  1
  O  O31  1  0.916684  0.286833  0.057900  1
  O  O32  1  0.500373  0.141232  0.278777  1
  O  O33  1  0.278777  0.500373  0.141232  1
