# generated using pymatgen
data_Mn8O13F3
_symmetry_space_group_name_H-M   'P 1'
_cell_length_a   4.50943878
_cell_length_b   7.45384920
_cell_length_c   7.46820383
_cell_angle_alpha   83.95348624
_cell_angle_beta   88.18204238
_cell_angle_gamma   88.61498426
_symmetry_Int_Tables_number   1
_chemical_formula_structural   Mn8O13F3
_chemical_formula_sum   'Mn8 O13 F3'
_cell_volume   249.44934931
_cell_formula_units_Z   1
loop_
 _symmetry_equiv_pos_site_id
 _symmetry_equiv_pos_as_xyz
  1  'x, y, z'
loop_
 _atom_site_type_symbol
 _atom_site_label
 _atom_site_symmetry_multiplicity
 _atom_site_fract_x
 _atom_site_fract_y
 _atom_site_fract_z
 _atom_site_occupancy
  Mn  Mn0  1  0.501146  0.701749  0.952059  1
  Mn  Mn1  1  0.517248  0.294232  0.061805  1
  Mn  Mn2  1  0.486325  0.188189  0.448399  1
  Mn  Mn3  1  0.500207  0.800722  0.555898  1
  Mn  Mn4  1  0.014038  0.953977  0.210062  1
  Mn  Mn5  1  0.007535  0.558732  0.293919  1
  Mn  Mn6  1  0.991999  0.456272  0.698749  1
  Mn  Mn7  1  0.016274  0.062622  0.795650  1
  O  O8  1  0.241856  0.094451  0.018272  1
  O  O9  1  0.228559  0.734148  0.153223  1
  O  O10  1  0.228763  0.236661  0.648780  1
  O  O11  1  0.225837  0.596999  0.511480  1
  O  O12  1  0.264064  0.340697  0.266486  1
  O  O13  1  0.273204  0.981547  0.412788  1
  O  O14  1  0.259588  0.845376  0.767276  1
  O  O15  1  0.733786  0.153463  0.237883  1
  O  O16  1  0.719663  0.652496  0.732162  1
  O  O17  1  0.735575  0.514957  0.095592  1
  O  O18  1  0.728134  0.015510  0.594252  1
  O  O19  1  0.765895  0.266788  0.845625  1
  O  O20  1  0.764001  0.768845  0.341295  1
  F  F21  1  0.268902  0.464675  0.914553  1
  F  F22  1  0.749008  0.401460  0.467190  1
  F  F23  1  0.778394  0.915431  0.976605  1
