# generated using pymatgen
data_La17Al4(Si3N11)3
_symmetry_space_group_name_H-M   'P 1'
_cell_length_a   10.92502703
_cell_length_b   10.92502703
_cell_length_c   10.92502703
_cell_angle_alpha   60.00000000
_cell_angle_beta   60.00000000
_cell_angle_gamma   60.00000000
_symmetry_Int_Tables_number   1
_chemical_formula_structural   La17Al4(Si3N11)3
_chemical_formula_sum   'La17 Al4 Si9 N33'
_cell_volume   922.04594668
_cell_formula_units_Z   1
loop_
 _symmetry_equiv_pos_site_id
 _symmetry_equiv_pos_as_xyz
  1  'x, y, z'
loop_
 _atom_site_type_symbol
 _atom_site_label
 _atom_site_symmetry_multiplicity
 _atom_site_fract_x
 _atom_site_fract_y
 _atom_site_fract_z
 _atom_site_occupancy
  La  La0  1  0.500000  0.500000  0.500000  1
  La  La1  1  0.042243  0.042243  0.457757  1
  La  La2  1  0.457757  0.457757  0.042243  1
  La  La3  1  0.457757  0.042243  0.457757  1
  La  La4  1  0.457757  0.042243  0.042243  1
  La  La5  1  0.042243  0.457757  0.457757  1
  La  La6  1  0.042243  0.457757  0.042243  1
  La  La7  1  0.741936  0.258064  0.741936  1
  La  La8  1  0.258064  0.741936  0.258064  1
  La  La9  1  0.741936  0.258064  0.258064  1
  La  La10  1  0.258064  0.258064  0.741936  1
  La  La11  1  0.258064  0.741936  0.741936  1
  La  La12  1  0.741936  0.741936  0.258064  1
  La  La13  1  0.011697  0.662768  0.662768  1
  La  La14  1  0.662768  0.662768  0.011697  1
  La  La15  1  0.662768  0.662768  0.662768  1
  La  La16  1  0.662768  0.011697  0.662768  1
  Al  Al17  1  0.787084  0.070972  0.070972  1
  Al  Al18  1  0.070972  0.070972  0.787084  1
  Al  Al19  1  0.070972  0.070972  0.070972  1
  Al  Al20  1  0.070972  0.787084  0.070972  1
  Si  Si21  1  0.850393  0.383202  0.383202  1
  Si  Si22  1  0.383202  0.383202  0.850393  1
  Si  Si23  1  0.383202  0.383202  0.383202  1
  Si  Si24  1  0.383202  0.850393  0.383202  1
  Si  Si25  1  0.884548  0.884548  0.884548  1
  Si  Si26  1  0.884548  0.346357  0.884548  1
  Si  Si27  1  0.346357  0.884548  0.884548  1
  Si  Si28  1  0.884548  0.884548  0.346357  1
  Si  Si29  1  0.250000  0.250000  0.250000  1
  N  N30  1  0.054029  0.315324  0.315324  1
  N  N31  1  0.315324  0.315324  0.054029  1
  N  N32  1  0.315324  0.315324  0.315324  1
  N  N33  1  0.315324  0.054029  0.315324  1
  N  N34  1  1.000000  0.000000  1.000000  1
  N  N35  1  0.785313  0.231343  0.491672  1
  N  N36  1  0.491672  0.491672  0.785313  1
  N  N37  1  0.491672  0.491672  0.231343  1
  N  N38  1  0.231343  0.785313  0.491672  1
  N  N39  1  0.491672  0.231343  0.491672  1
  N  N40  1  0.491672  0.231343  0.785313  1
  N  N41  1  0.491672  0.785313  0.491672  1
  N  N42  1  0.231343  0.491672  0.491672  1
  N  N43  1  0.785313  0.491672  0.231343  1
  N  N44  1  0.785313  0.491672  0.491672  1
  N  N45  1  0.231343  0.491672  0.785313  1
  N  N46  1  0.491672  0.785313  0.231343  1
  N  N47  1  0.994984  0.994984  0.282999  1
  N  N48  1  0.282999  0.727033  0.994984  1
  N  N49  1  0.727033  0.282999  0.994984  1
  N  N50  1  0.994984  0.994984  0.727033  1
  N  N51  1  0.282999  0.994984  0.727033  1
  N  N52  1  0.727033  0.994984  0.994984  1
  N  N53  1  0.727033  0.994984  0.282999  1
  N  N54  1  0.994984  0.727033  0.282999  1
  N  N55  1  0.994984  0.727033  0.994984  1
  N  N56  1  0.994984  0.282999  0.727033  1
  N  N57  1  0.994984  0.282999  0.994984  1
  N  N58  1  0.282999  0.994984  0.994984  1
  N  N59  1  0.819732  0.819732  0.819732  1
  N  N60  1  0.819732  0.540805  0.819732  1
  N  N61  1  0.540805  0.819732  0.819732  1
  N  N62  1  0.819732  0.819732  0.540805  1
