# generated using pymatgen
data_Ca(BRh)2
_symmetry_space_group_name_H-M   'P 1'
_cell_length_a   7.06586578
_cell_length_b   6.09204719
_cell_length_c   5.51846957
_cell_angle_alpha   74.79017423
_cell_angle_beta   56.30257017
_cell_angle_gamma   48.90725560
_symmetry_Int_Tables_number   1
_chemical_formula_structural   Ca(BRh)2
_chemical_formula_sum   'Ca2 B4 Rh4'
_cell_volume   146.94940870
_cell_formula_units_Z   2
loop_
 _symmetry_equiv_pos_site_id
 _symmetry_equiv_pos_as_xyz
  1  'x, y, z'
loop_
 _atom_site_type_symbol
 _atom_site_label
 _atom_site_symmetry_multiplicity
 _atom_site_fract_x
 _atom_site_fract_y
 _atom_site_fract_z
 _atom_site_occupancy
  Ca  Ca0  1  0.500000  0.500000  0.500000  1
  Ca  Ca1  1  0.750000  0.750000  0.750000  1
  B  B2  1  0.824304  0.175696  0.824304  1
  B  B3  1  0.074304  0.425696  0.074304  1
  B  B4  1  0.175696  0.824304  0.175696  1
  B  B5  1  0.425696  0.074304  0.425696  1
  Rh  Rh6  1  0.130156  0.130156  0.869844  1
  Rh  Rh7  1  0.380156  0.380156  0.119844  1
  Rh  Rh8  1  0.119844  0.119844  0.380156  1
  Rh  Rh9  1  0.869844  0.869844  0.130156  1
