# generated using pymatgen
data_LiV3OF11
_symmetry_space_group_name_H-M   'P 1'
_cell_length_a   5.51103673
_cell_length_b   6.00221055
_cell_length_c   7.02241542
_cell_angle_alpha   93.05749881
_cell_angle_beta   103.23774486
_cell_angle_gamma   93.25826953
_symmetry_Int_Tables_number   1
_chemical_formula_structural   LiV3OF11
_chemical_formula_sum   'Li1 V3 O1 F11'
_cell_volume   225.22562140
_cell_formula_units_Z   1
loop_
 _symmetry_equiv_pos_site_id
 _symmetry_equiv_pos_as_xyz
  1  'x, y, z'
loop_
 _atom_site_type_symbol
 _atom_site_label
 _atom_site_symmetry_multiplicity
 _atom_site_fract_x
 _atom_site_fract_y
 _atom_site_fract_z
 _atom_site_occupancy
  Li  Li0  1  0.298298  0.560444  0.053740  1
  V  V1  1  0.973252  0.005309  0.986649  1
  V  V2  1  0.398863  0.850127  0.660804  1
  V  V3  1  0.604801  0.148676  0.368976  1
  O  O4  1  0.655270  0.996362  0.841603  1
  F  F5  1  0.080231  0.290180  0.972366  1
  F  F6  1  0.425208  0.604326  0.816943  1
  F  F7  1  0.109063  0.925891  0.761554  1
  F  F8  1  0.351447  0.139997  0.516712  1
  F  F9  1  0.826352  0.300204  0.558149  1
  F  F10  1  0.207742  0.687978  0.454518  1
  F  F11  1  0.650503  0.858979  0.477899  1
  F  F12  1  0.861283  0.088379  0.223381  1
  F  F13  1  0.519782  0.407830  0.244933  1
  F  F14  1  0.359805  0.988200  0.156003  1
  F  F15  1  0.981450  0.714901  0.043960  1
