# generated using pymatgen
data_LiVP3HO10
_symmetry_space_group_name_H-M   'P 1'
_cell_length_a   8.69685809
_cell_length_b   4.98739654
_cell_length_c   11.82642383
_cell_angle_alpha   90.00000000
_cell_angle_beta   126.16252576
_cell_angle_gamma   90.00000000
_symmetry_Int_Tables_number   1
_chemical_formula_structural   LiVP3HO10
_chemical_formula_sum   'Li2 V2 P6 H2 O20'
_cell_volume   414.14235480
_cell_formula_units_Z   2
loop_
 _symmetry_equiv_pos_site_id
 _symmetry_equiv_pos_as_xyz
  1  'x, y, z'
loop_
 _atom_site_type_symbol
 _atom_site_label
 _atom_site_symmetry_multiplicity
 _atom_site_fract_x
 _atom_site_fract_y
 _atom_site_fract_z
 _atom_site_occupancy
  Li  Li0  1  0.500000  0.604034  0.250000  1
  Li  Li1  1  0.500000  0.395966  0.750000  1
  V  V2  1  0.000000  0.500000  0.000000  1
  V  V3  1  0.000000  0.500000  0.500000  1
  P  P4  1  0.734578  0.007977  0.469475  1
  P  P5  1  0.000000  0.762012  0.750000  1
  P  P6  1  0.265422  0.007977  0.030525  1
  P  P7  1  0.734578  0.992023  0.969475  1
  P  P8  1  0.000000  0.237988  0.250000  1
  P  P9  1  0.265422  0.992023  0.530525  1
  H  H10  1  0.500000  0.000000  0.500000  1
  H  H11  1  0.500000  0.000000  0.000000  1
  O  O12  1  0.188994  0.818258  0.087350  1
  O  O13  1  0.242951  0.305228  0.050528  1
  O  O14  1  0.528727  0.935818  0.413508  1
  O  O15  1  0.471273  0.935818  0.086492  1
  O  O16  1  0.914506  0.596008  0.807402  1
  O  O17  1  0.849312  0.967855  0.637138  1
  O  O18  1  0.757049  0.305228  0.449472  1
  O  O19  1  0.811006  0.818258  0.412650  1
  O  O20  1  0.150688  0.967855  0.862862  1
  O  O21  1  0.085494  0.596008  0.692598  1
  O  O22  1  0.914506  0.403992  0.307402  1
  O  O23  1  0.849312  0.032145  0.137138  1
  O  O24  1  0.188994  0.181742  0.587350  1
  O  O25  1  0.242951  0.694772  0.550528  1
  O  O26  1  0.150688  0.032145  0.362862  1
  O  O27  1  0.085494  0.403992  0.192598  1
  O  O28  1  0.528727  0.064182  0.913508  1
  O  O29  1  0.471273  0.064182  0.586492  1
  O  O30  1  0.757049  0.694772  0.949472  1
  O  O31  1  0.811006  0.181742  0.912650  1
