# generated using pymatgen
data_Fe4O3F5
_symmetry_space_group_name_H-M   'P 1'
_cell_length_a   4.78052105
_cell_length_b   7.83918632
_cell_length_c   7.85885231
_cell_angle_alpha   104.70717553
_cell_angle_beta   90.61935973
_cell_angle_gamma   90.60114002
_symmetry_Int_Tables_number   1
_chemical_formula_structural   Fe4O3F5
_chemical_formula_sum   'Fe8 O6 F10'
_cell_volume   284.82082405
_cell_formula_units_Z   2
loop_
 _symmetry_equiv_pos_site_id
 _symmetry_equiv_pos_as_xyz
  1  'x, y, z'
loop_
 _atom_site_type_symbol
 _atom_site_label
 _atom_site_symmetry_multiplicity
 _atom_site_fract_x
 _atom_site_fract_y
 _atom_site_fract_z
 _atom_site_occupancy
  Fe  Fe0  1  0.460723  0.633919  0.883915  1
  Fe  Fe1  1  0.494904  0.866158  0.615152  1
  Fe  Fe2  1  0.561675  0.377506  0.129593  1
  Fe  Fe3  1  0.529892  0.146375  0.396666  1
  Fe  Fe4  1  0.987916  0.735587  0.217244  1
  Fe  Fe5  1  0.012996  0.504924  0.504918  1
  Fe  Fe6  1  0.955605  0.237119  0.756716  1
  Fe  Fe7  1  0.009212  0.005656  0.005684  1
  O  O8  1  0.804228  0.221117  0.971259  1
  O  O9  1  0.685209  0.598308  0.088643  1
  O  O10  1  0.703422  0.351681  0.355365  1
  O  O11  1  0.687836  0.086579  0.597027  1
  O  O12  1  0.319227  0.657823  0.653622  1
  O  O13  1  0.193386  0.779719  0.029524  1
  F  F14  1  0.797262  0.465515  0.734208  1
  F  F15  1  0.786738  0.972087  0.234208  1
  F  F16  1  0.804354  0.734932  0.459039  1
  F  F17  1  0.698964  0.846633  0.842596  1
  F  F18  1  0.292559  0.901422  0.397528  1
  F  F19  1  0.314433  0.161603  0.166382  1
  F  F20  1  0.294715  0.394354  0.896112  1
  F  F21  1  0.205532  0.027048  0.765003  1
  F  F22  1  0.202984  0.531808  0.262130  1
  F  F23  1  0.196228  0.262125  0.537463  1
