# generated using pymatgen
data_SF6
_symmetry_space_group_name_H-M   'P 1'
_cell_length_a   8.46569630
_cell_length_b   8.46569630
_cell_length_c   4.90114934
_cell_angle_alpha   90.00000000
_cell_angle_beta   90.00000000
_cell_angle_gamma   120.00000000
_symmetry_Int_Tables_number   1
_chemical_formula_structural   SF6
_chemical_formula_sum   'S3 F18'
_cell_volume   304.19630649
_cell_formula_units_Z   3
loop_
 _symmetry_equiv_pos_site_id
 _symmetry_equiv_pos_as_xyz
  1  'x, y, z'
loop_
 _atom_site_type_symbol
 _atom_site_label
 _atom_site_symmetry_multiplicity
 _atom_site_fract_x
 _atom_site_fract_y
 _atom_site_fract_z
 _atom_site_occupancy
  S  S0  1  0.666667  0.333333  0.446767  1
  S  S1  1  0.333333  0.666667  0.553233  1
  S  S2  1  0.000000  0.000000  0.000000  1
  F  F3  1  0.244399  0.755601  0.365087  1
  F  F4  1  0.244399  0.488798  0.365087  1
  F  F5  1  0.511202  0.755601  0.365087  1
  F  F6  1  0.088922  0.911078  0.811884  1
  F  F7  1  0.088922  0.177843  0.811884  1
  F  F8  1  0.822157  0.911078  0.811884  1
  F  F9  1  0.177843  0.088922  0.188116  1
  F  F10  1  0.911078  0.822157  0.188116  1
  F  F11  1  0.911078  0.088922  0.188116  1
  F  F12  1  0.422245  0.577755  0.741484  1
  F  F13  1  0.422245  0.844491  0.741484  1
  F  F14  1  0.155509  0.577755  0.741484  1
  F  F15  1  0.844491  0.422245  0.258516  1
  F  F16  1  0.577755  0.155509  0.258516  1
  F  F17  1  0.577755  0.422245  0.258516  1
  F  F18  1  0.755601  0.244399  0.634913  1
  F  F19  1  0.755601  0.511202  0.634913  1
  F  F20  1  0.488798  0.244399  0.634913  1
