# generated using pymatgen
data_Na6Mn2P(CO4)4
_symmetry_space_group_name_H-M   'P 1'
_cell_length_a   10.04797300
_cell_length_b   10.04797300
_cell_length_c   10.04797300
_cell_angle_alpha   60.00000000
_cell_angle_beta   60.00000000
_cell_angle_gamma   60.00000000
_symmetry_Int_Tables_number   1
_chemical_formula_structural   Na6Mn2P(CO4)4
_chemical_formula_sum   'Na12 Mn4 P2 C8 O32'
_cell_volume   717.33228862
_cell_formula_units_Z   2
loop_
 _symmetry_equiv_pos_site_id
 _symmetry_equiv_pos_as_xyz
  1  'x, y, z'
loop_
 _atom_site_type_symbol
 _atom_site_label
 _atom_site_symmetry_multiplicity
 _atom_site_fract_x
 _atom_site_fract_y
 _atom_site_fract_z
 _atom_site_occupancy
  Na  Na0  1  0.042101  0.457899  0.457899  1
  Na  Na1  1  0.457899  0.042101  0.457899  1
  Na  Na2  1  0.042101  0.042101  0.457899  1
  Na  Na3  1  0.792101  0.207899  0.207899  1
  Na  Na4  1  0.042101  0.457899  0.042101  1
  Na  Na5  1  0.457899  0.457899  0.042101  1
  Na  Na6  1  0.207899  0.792101  0.207899  1
  Na  Na7  1  0.792101  0.792101  0.207899  1
  Na  Na8  1  0.457899  0.042101  0.042101  1
  Na  Na9  1  0.792101  0.207899  0.792101  1
  Na  Na10  1  0.207899  0.207899  0.792101  1
  Na  Na11  1  0.207899  0.792101  0.792101  1
  Mn  Mn12  1  0.625000  0.625000  0.625000  1
  Mn  Mn13  1  0.125000  0.625000  0.625000  1
  Mn  Mn14  1  0.625000  0.125000  0.625000  1
  Mn  Mn15  1  0.625000  0.625000  0.125000  1
  P  P16  1  1.000000  0.000000  1.000000  1
  P  P17  1  0.250000  0.250000  0.250000  1
  C  C18  1  0.843052  0.843052  0.470844  1
  C  C19  1  0.406948  0.406948  0.406948  1
  C  C20  1  0.779156  0.406948  0.406948  1
  C  C21  1  0.406948  0.779156  0.406948  1
  C  C22  1  0.843052  0.470844  0.843052  1
  C  C23  1  0.470844  0.843052  0.843052  1
  C  C24  1  0.843052  0.843052  0.843052  1
  C  C25  1  0.406948  0.406948  0.779156  1
  O  O26  1  0.822579  0.726108  0.469366  1
  O  O27  1  0.981947  0.822579  0.469366  1
  O  O28  1  0.726108  0.981947  0.469366  1
  O  O29  1  0.427421  0.268053  0.523892  1
  O  O30  1  0.063237  0.810289  0.063237  1
  O  O31  1  0.780634  0.268053  0.427421  1
  O  O32  1  0.780634  0.427421  0.523892  1
  O  O33  1  0.810289  0.063237  0.063237  1
  O  O34  1  0.063237  0.063237  0.063237  1
  O  O35  1  0.268053  0.523892  0.427421  1
  O  O36  1  0.523892  0.427421  0.268053  1
  O  O37  1  0.063237  0.063237  0.810289  1
  O  O38  1  0.268053  0.780634  0.523892  1
  O  O39  1  0.780634  0.523892  0.268053  1
  O  O40  1  0.523892  0.780634  0.427421  1
  O  O41  1  0.822579  0.469366  0.981947  1
  O  O42  1  0.427421  0.780634  0.268053  1
  O  O43  1  0.726108  0.469366  0.822579  1
  O  O44  1  0.469366  0.726108  0.981947  1
  O  O45  1  0.981947  0.469366  0.726108  1
  O  O46  1  0.186763  0.186763  0.439711  1
  O  O47  1  0.726108  0.822579  0.981947  1
  O  O48  1  0.981947  0.726108  0.822579  1
  O  O49  1  0.186763  0.186763  0.186763  1
  O  O50  1  0.439711  0.186763  0.186763  1
  O  O51  1  0.469366  0.822579  0.726108  1
  O  O52  1  0.469366  0.981947  0.822579  1
  O  O53  1  0.186763  0.439711  0.186763  1
  O  O54  1  0.822579  0.981947  0.726108  1
  O  O55  1  0.523892  0.268053  0.780634  1
  O  O56  1  0.268053  0.427421  0.780634  1
  O  O57  1  0.427421  0.523892  0.780634  1
