# generated using pymatgen
data_Dy2H16S3O20
_symmetry_space_group_name_H-M   'P 1'
_cell_length_a   7.62421577
_cell_length_b   7.62421577
_cell_length_c   18.27382226
_cell_angle_alpha   80.74861268
_cell_angle_beta   99.25138732
_cell_angle_gamma   127.73270098
_symmetry_Int_Tables_number   1
_chemical_formula_structural   Dy2H16S3O20
_chemical_formula_sum   'Dy4 H32 S6 O40'
_cell_volume   826.51331437
_cell_formula_units_Z   2
loop_
 _symmetry_equiv_pos_site_id
 _symmetry_equiv_pos_as_xyz
  1  'x, y, z'
loop_
 _atom_site_type_symbol
 _atom_site_label
 _atom_site_symmetry_multiplicity
 _atom_site_fract_x
 _atom_site_fract_y
 _atom_site_fract_z
 _atom_site_occupancy
  Dy  Dy0  1  0.163867  0.844488  0.888623  1
  Dy  Dy1  1  0.155512  0.836133  0.388623  1
  Dy  Dy2  1  0.844488  0.163867  0.611377  1
  Dy  Dy3  1  0.836133  0.155512  0.111377  1
  H  H4  1  0.324265  0.314153  0.892327  1
  H  H5  1  0.198279  0.195264  0.965714  1
  H  H6  1  0.697083  0.693081  0.660112  1
  H  H7  1  0.736590  0.436651  0.005105  1
  H  H8  1  0.958008  0.845819  0.646580  1
  H  H9  1  0.685847  0.675735  0.392327  1
  H  H10  1  0.804736  0.801721  0.465714  1
  H  H11  1  0.306919  0.302917  0.160112  1
  H  H12  1  0.760954  0.460039  0.550621  1
  H  H13  1  0.563349  0.263410  0.505105  1
  H  H14  1  0.615169  0.258162  0.701285  1
  H  H15  1  0.154181  0.041992  0.146580  1
  H  H16  1  0.229380  0.781174  0.741442  1
  H  H17  1  0.781174  0.229380  0.758558  1
  H  H18  1  0.258162  0.615169  0.798715  1
  H  H19  1  0.460039  0.760954  0.949379  1
  H  H20  1  0.539961  0.239046  0.050621  1
  H  H21  1  0.741838  0.384831  0.201285  1
  H  H22  1  0.218826  0.770620  0.241442  1
  H  H23  1  0.770620  0.218826  0.258558  1
  H  H24  1  0.845819  0.958008  0.853420  1
  H  H25  1  0.384831  0.741838  0.298715  1
  H  H26  1  0.436651  0.736590  0.494895  1
  H  H27  1  0.239046  0.539961  0.449379  1
  H  H28  1  0.693081  0.697083  0.839888  1
  H  H29  1  0.195264  0.198279  0.534286  1
  H  H30  1  0.314153  0.324265  0.607673  1
  H  H31  1  0.041992  0.154181  0.353420  1
  H  H32  1  0.263410  0.563349  0.994895  1
  H  H33  1  0.302917  0.306919  0.339888  1
  H  H34  1  0.801721  0.804736  0.034286  1
  H  H35  1  0.675735  0.685847  0.107673  1
  S  S36  1  0.792016  0.233883  0.912009  1
  S  S37  1  0.233883  0.792016  0.587991  1
  S  S38  1  0.766117  0.207984  0.412009  1
  S  S39  1  0.207984  0.766117  0.087991  1
  S  S40  1  0.316133  0.316133  0.750000  1
  S  S41  1  0.683867  0.683867  0.250000  1
  O  O42  1  0.838431  0.821081  0.861556  1
  O  O43  1  0.280763  0.190417  0.931587  1
  O  O44  1  0.481503  0.406829  0.693673  1
  O  O45  1  0.271207  0.105961  0.787123  1
  O  O46  1  0.178919  0.161569  0.361556  1
  O  O47  1  0.809583  0.719237  0.431587  1
  O  O48  1  0.838558  0.456788  0.902819  1
  O  O49  1  0.206426  0.878732  0.648603  1
  O  O50  1  0.548467  0.058362  0.912900  1
  O  O51  1  0.593171  0.518497  0.193673  1
  O  O52  1  0.208794  0.899318  0.514752  1
  O  O53  1  0.630541  0.303930  0.555854  1
  O  O54  1  0.894039  0.728793  0.287123  1
  O  O55  1  0.212294  0.713220  0.793290  1
  O  O56  1  0.713220  0.212294  0.706710  1
  O  O57  1  0.303930  0.630541  0.944146  1
  O  O58  1  0.899318  0.208794  0.985248  1
  O  O59  1  0.543212  0.161442  0.402819  1
  O  O60  1  0.058362  0.548467  0.587100  1
  O  O61  1  0.878732  0.206426  0.851397  1
  O  O62  1  0.121268  0.793574  0.148603  1
  O  O63  1  0.941638  0.451533  0.412900  1
  O  O64  1  0.456788  0.838558  0.597181  1
  O  O65  1  0.100682  0.791206  0.014752  1
  O  O66  1  0.696070  0.369459  0.055854  1
  O  O67  1  0.286780  0.787706  0.293290  1
  O  O68  1  0.787706  0.286780  0.206710  1
  O  O69  1  0.105961  0.271207  0.712877  1
  O  O70  1  0.369459  0.696070  0.444146  1
  O  O71  1  0.791206  0.100682  0.485248  1
  O  O72  1  0.406829  0.481503  0.806327  1
  O  O73  1  0.451533  0.941638  0.087100  1
  O  O74  1  0.793574  0.121268  0.351397  1
  O  O75  1  0.161442  0.543212  0.097181  1
  O  O76  1  0.190417  0.280763  0.568413  1
  O  O77  1  0.821081  0.838431  0.638444  1
  O  O78  1  0.728793  0.894039  0.212877  1
  O  O79  1  0.518497  0.593171  0.306327  1
  O  O80  1  0.719237  0.809583  0.068413  1
  O  O81  1  0.161569  0.178919  0.138444  1
