# generated using pymatgen
data_YbO2
_symmetry_space_group_name_H-M   'P 1'
_cell_length_a   4.08676068
_cell_length_b   4.08676068
_cell_length_c   4.47201925
_cell_angle_alpha   90.00000000
_cell_angle_beta   90.00000000
_cell_angle_gamma   90.00000000
_symmetry_Int_Tables_number   1
_chemical_formula_structural   YbO2
_chemical_formula_sum   'Yb2 O4'
_cell_volume   74.68993420
_cell_formula_units_Z   2
loop_
 _symmetry_equiv_pos_site_id
 _symmetry_equiv_pos_as_xyz
  1  'x, y, z'
loop_
 _atom_site_type_symbol
 _atom_site_label
 _atom_site_symmetry_multiplicity
 _atom_site_fract_x
 _atom_site_fract_y
 _atom_site_fract_z
 _atom_site_occupancy
  Yb  Yb0  1  0.000000  0.000000  0.000000  1
  Yb  Yb1  1  0.500000  0.500000  0.500000  1
  O  O2  1  0.373365  0.373365  0.000000  1
  O  O3  1  0.626635  0.626635  0.000000  1
  O  O4  1  0.873365  0.126635  0.500000  1
  O  O5  1  0.126635  0.873365  0.500000  1
