# generated using pymatgen
data_Fe3S4
_symmetry_space_group_name_H-M   'P 1'
_cell_length_a   6.80811664
_cell_length_b   6.80811664
_cell_length_c   6.80811664
_cell_angle_alpha   58.52617143
_cell_angle_beta   58.52617143
_cell_angle_gamma   58.52617143
_symmetry_Int_Tables_number   1
_chemical_formula_structural   Fe3S4
_chemical_formula_sum   'Fe6 S8'
_cell_volume   215.61222851
_cell_formula_units_Z   2
loop_
 _symmetry_equiv_pos_site_id
 _symmetry_equiv_pos_as_xyz
  1  'x, y, z'
loop_
 _atom_site_type_symbol
 _atom_site_label
 _atom_site_symmetry_multiplicity
 _atom_site_fract_x
 _atom_site_fract_y
 _atom_site_fract_z
 _atom_site_occupancy
  Fe  Fe0  1  0.500000  0.000000  0.500000  1
  Fe  Fe1  1  1.000000  0.500000  0.500000  1
  Fe  Fe2  1  0.500000  0.500000  0.000000  1
  Fe  Fe3  1  0.500000  0.500000  0.500000  1
  Fe  Fe4  1  0.126845  0.126845  0.126845  1
  Fe  Fe5  1  0.873155  0.873155  0.873155  1
  S  S6  1  0.259794  0.259794  0.729013  1
  S  S7  1  0.740206  0.270987  0.740206  1
  S  S8  1  0.254077  0.254077  0.254077  1
  S  S9  1  0.745923  0.745923  0.745923  1
  S  S10  1  0.729013  0.259794  0.259794  1
  S  S11  1  0.740206  0.740206  0.270987  1
  S  S12  1  0.259794  0.729013  0.259794  1
  S  S13  1  0.270987  0.740206  0.740206  1
