# generated using pymatgen
data_Ni3(P2O7)2
_symmetry_space_group_name_H-M   'P 1'
_cell_length_a   6.34118874
_cell_length_b   8.50874728
_cell_length_c   9.99331793
_cell_angle_alpha   108.55008379
_cell_angle_beta   93.16539441
_cell_angle_gamma   91.89276268
_symmetry_Int_Tables_number   1
_chemical_formula_structural   Ni3(P2O7)2
_chemical_formula_sum   'Ni6 P8 O28'
_cell_volume   509.67228643
_cell_formula_units_Z   2
loop_
 _symmetry_equiv_pos_site_id
 _symmetry_equiv_pos_as_xyz
  1  'x, y, z'
loop_
 _atom_site_type_symbol
 _atom_site_label
 _atom_site_symmetry_multiplicity
 _atom_site_fract_x
 _atom_site_fract_y
 _atom_site_fract_z
 _atom_site_occupancy
  Ni  Ni0  1  0.000000  0.500000  0.500000  1
  Ni  Ni1  1  0.299066  0.896732  0.630693  1
  Ni  Ni2  1  0.354371  0.879154  0.060323  1
  Ni  Ni3  1  0.500000  0.500000  0.000000  1
  Ni  Ni4  1  0.645629  0.120846  0.939677  1
  Ni  Ni5  1  0.700934  0.103268  0.369307  1
  P  P6  1  0.158289  0.201049  0.005977  1
  P  P7  1  0.187754  0.175654  0.302957  1
  P  P8  1  0.271508  0.550124  0.723397  1
  P  P9  1  0.481001  0.747603  0.316924  1
  P  P10  1  0.518999  0.252397  0.683076  1
  P  P11  1  0.728492  0.449876  0.276603  1
  P  P12  1  0.812246  0.824346  0.697043  1
  P  P13  1  0.841711  0.798951  0.994023  1
  O  O14  1  0.047850  0.858865  0.082411  1
  O  O15  1  0.013953  0.082968  0.352144  1
  O  O16  1  0.057470  0.448588  0.678508  1
  O  O17  1  0.097966  0.213026  0.163596  1
  O  O18  1  0.236029  0.371298  0.006151  1
  O  O19  1  0.225018  0.346435  0.415394  1
  O  O20  1  0.264355  0.661447  0.628882  1
  O  O21  1  0.313035  0.813448  0.418860  1
  O  O22  1  0.329763  0.634914  0.880928  1
  O  O23  1  0.322704  0.133299  0.643247  1
  O  O24  1  0.330798  0.070697  0.966452  1
  O  O25  1  0.410037  0.705596  0.158329  1
  O  O26  1  0.390436  0.081893  0.264068  1
  O  O27  1  0.460568  0.428953  0.670057  1
  O  O28  1  0.539432  0.571047  0.329943  1
  O  O29  1  0.609564  0.918107  0.735932  1
  O  O30  1  0.589963  0.294404  0.841671  1
  O  O31  1  0.669202  0.929303  0.033548  1
  O  O32  1  0.677296  0.866701  0.356753  1
  O  O33  1  0.670237  0.365086  0.119072  1
  O  O34  1  0.686965  0.186552  0.581140  1
  O  O35  1  0.735645  0.338553  0.371118  1
  O  O36  1  0.774982  0.653565  0.584606  1
  O  O37  1  0.763971  0.628702  0.993849  1
  O  O38  1  0.902034  0.786974  0.836404  1
  O  O39  1  0.942530  0.551412  0.321492  1
  O  O40  1  0.986047  0.917032  0.647856  1
  O  O41  1  0.952150  0.141135  0.917589  1
