# generated using pymatgen
data_Mn8O13F3
_symmetry_space_group_name_H-M   'P 1'
_cell_length_a   6.71986650
_cell_length_b   6.74005907
_cell_length_c   7.01113005
_cell_angle_alpha   114.27488714
_cell_angle_beta   114.24906072
_cell_angle_gamma   95.77415570
_symmetry_Int_Tables_number   1
_chemical_formula_structural   Mn8O13F3
_chemical_formula_sum   'Mn8 O13 F3'
_cell_volume   249.67817395
_cell_formula_units_Z   1
loop_
 _symmetry_equiv_pos_site_id
 _symmetry_equiv_pos_as_xyz
  1  'x, y, z'
loop_
 _atom_site_type_symbol
 _atom_site_label
 _atom_site_symmetry_multiplicity
 _atom_site_fract_x
 _atom_site_fract_y
 _atom_site_fract_z
 _atom_site_occupancy
  Mn  Mn0  1  0.549340  0.301404  0.847985  1
  Mn  Mn1  1  0.937925  0.199445  0.146802  1
  Mn  Mn2  1  0.449205  0.680213  0.642567  1
  Mn  Mn3  1  0.050548  0.798367  0.348411  1
  Mn  Mn4  1  0.946568  0.192282  0.643112  1
  Mn  Mn5  1  0.565867  0.305289  0.360236  1
  Mn  Mn6  1  0.037982  0.786207  0.831895  1
  Mn  Mn7  1  0.427057  0.696475  0.139622  1
  O  O8  1  0.989340  0.905250  0.616500  1
  O  O9  1  0.477578  0.396685  0.607259  1
  O  O10  1  0.852715  0.278354  0.893000  1
  O  O11  1  0.788593  0.866301  0.888487  1
  O  O12  1  0.652704  0.233875  0.116073  1
  O  O13  1  0.877727  0.449152  0.606409  1
  O  O14  1  0.121320  0.537503  0.389188  1
  O  O15  1  0.616800  0.040719  0.391353  1
  O  O16  1  0.347441  0.770245  0.884206  1
  O  O17  1  0.286938  0.370573  0.890745  1
  O  O18  1  0.150312  0.737378  0.112547  1
  O  O19  1  0.525984  0.600510  0.389259  1
  O  O20  1  0.026519  0.103406  0.389805  1
  F  F21  1  0.700088  0.652081  0.119689  1
  F  F22  1  0.403174  0.951680  0.621502  1
  F  F23  1  0.218275  0.146607  0.123347  1
