# generated using pymatgen
data_BaNaP3H3(NO2)3
_symmetry_space_group_name_H-M   'P 1'
_cell_length_a   7.57886355
_cell_length_b   7.57886355
_cell_length_c   7.99592786
_cell_angle_alpha   71.87273662
_cell_angle_beta   108.12726338
_cell_angle_gamma   92.28153378
_symmetry_Int_Tables_number   1
_chemical_formula_structural   BaNaP3H3(NO2)3
_chemical_formula_sum   'Ba2 Na2 P6 H6 N6 O12'
_cell_volume   413.99410659
_cell_formula_units_Z   2
loop_
 _symmetry_equiv_pos_site_id
 _symmetry_equiv_pos_as_xyz
  1  'x, y, z'
loop_
 _atom_site_type_symbol
 _atom_site_label
 _atom_site_symmetry_multiplicity
 _atom_site_fract_x
 _atom_site_fract_y
 _atom_site_fract_z
 _atom_site_occupancy
  Ba  Ba0  1  0.431183  0.568817  0.696579  1
  Ba  Ba1  1  0.568817  0.431183  0.303421  1
  Na  Na2  1  0.817983  0.817983  0.500000  1
  Na  Na3  1  0.182017  0.182017  0.500000  1
  P  P4  1  0.060567  0.656623  0.234848  1
  P  P5  1  0.656623  0.060567  0.765152  1
  P  P6  1  0.939433  0.343377  0.765152  1
  P  P7  1  0.343377  0.939433  0.234848  1
  P  P8  1  0.200229  0.799771  0.913499  1
  P  P9  1  0.799771  0.200229  0.086501  1
  H  H10  1  0.064469  0.935531  0.292906  1
  H  H11  1  0.935531  0.064469  0.707094  1
  H  H12  1  0.897571  0.741167  0.917979  1
  H  H13  1  0.741168  0.897571  0.082021  1
  H  H14  1  0.102429  0.258832  0.082021  1
  H  H15  1  0.258833  0.102429  0.917979  1
  N  N16  1  0.031789  0.713386  0.006724  1
  N  N17  1  0.713386  0.031789  0.993276  1
  N  N18  1  0.968211  0.286614  0.993276  1
  N  N19  1  0.286614  0.968211  0.006724  1
  N  N20  1  0.162846  0.837154  0.305843  1
  N  N21  1  0.837154  0.162846  0.694157  1
  O  O22  1  0.870729  0.648005  0.260544  1
  O  O23  1  0.648005  0.870729  0.739456  1
  O  O24  1  0.129271  0.351995  0.739456  1
  O  O25  1  0.351995  0.129271  0.260544  1
  O  O26  1  0.205174  0.493792  0.338709  1
  O  O27  1  0.493792  0.205174  0.661290  1
  O  O28  1  0.794826  0.506208  0.661290  1
  O  O29  1  0.506208  0.794826  0.338709  1
  O  O30  1  0.352379  0.647621  0.975539  1
  O  O31  1  0.647621  0.352379  0.024461  1
  O  O32  1  0.111828  0.888172  0.705226  1
  O  O33  1  0.888172  0.111828  0.294774  1
