# generated using pymatgen
data_K2Na(H2N)3
_symmetry_space_group_name_H-M   'P 1'
_cell_length_a   7.03338012
_cell_length_b   7.03338012
_cell_length_c   12.40927251
_cell_angle_alpha   90.00000000
_cell_angle_beta   90.00000000
_cell_angle_gamma   90.00000000
_symmetry_Int_Tables_number   1
_chemical_formula_structural   K2Na(H2N)3
_chemical_formula_sum   'K8 Na4 H24 N12'
_cell_volume   613.86730188
_cell_formula_units_Z   4
loop_
 _symmetry_equiv_pos_site_id
 _symmetry_equiv_pos_as_xyz
  1  'x, y, z'
loop_
 _atom_site_type_symbol
 _atom_site_label
 _atom_site_symmetry_multiplicity
 _atom_site_fract_x
 _atom_site_fract_y
 _atom_site_fract_z
 _atom_site_occupancy
  K  K0  1  0.500000  0.500000  0.250000  1
  K  K1  1  0.500000  0.500000  0.750000  1
  K  K2  1  0.000000  0.000000  0.000000  1
  K  K3  1  0.000000  0.000000  0.500000  1
  K  K4  1  0.000000  0.500000  0.150649  1
  K  K5  1  0.500000  0.000000  0.650649  1
  K  K6  1  0.000000  0.500000  0.849351  1
  K  K7  1  0.500000  0.000000  0.349351  1
  Na  Na8  1  0.362153  0.324656  0.000000  1
  Na  Na9  1  0.637847  0.675344  0.000000  1
  Na  Na10  1  0.675344  0.362153  0.500000  1
  Na  Na11  1  0.324656  0.637847  0.500000  1
  H  H12  1  0.164940  0.142246  0.221319  1
  H  H13  1  0.835060  0.857754  0.221319  1
  H  H14  1  0.857754  0.164940  0.721319  1
  H  H15  1  0.142246  0.835060  0.721319  1
  H  H16  1  0.835060  0.857754  0.778681  1
  H  H17  1  0.164940  0.142246  0.778681  1
  H  H18  1  0.142246  0.835060  0.278681  1
  H  H19  1  0.857754  0.164940  0.278681  1
  H  H20  1  0.330472  0.048072  0.150294  1
  H  H21  1  0.669528  0.951928  0.150294  1
  H  H22  1  0.951928  0.330472  0.650294  1
  H  H23  1  0.048072  0.669528  0.650294  1
  H  H24  1  0.669528  0.951928  0.849706  1
  H  H25  1  0.330472  0.048072  0.849706  1
  H  H26  1  0.048072  0.669528  0.349706  1
  H  H27  1  0.951928  0.330472  0.349706  1
  H  H28  1  0.704210  0.243309  0.064848  1
  H  H29  1  0.295790  0.756691  0.064848  1
  H  H30  1  0.756691  0.704210  0.564848  1
  H  H31  1  0.243309  0.295790  0.564848  1
  H  H32  1  0.295790  0.756691  0.935152  1
  H  H33  1  0.704210  0.243309  0.935152  1
  H  H34  1  0.243309  0.295790  0.435152  1
  H  H35  1  0.756691  0.704210  0.435152  1
  N  N36  1  0.721878  0.333351  0.000000  1
  N  N37  1  0.278122  0.666649  0.000000  1
  N  N38  1  0.666649  0.721878  0.500000  1
  N  N39  1  0.333351  0.278122  0.500000  1
  N  N40  1  0.269572  0.178161  0.167048  1
  N  N41  1  0.730428  0.821839  0.167048  1
  N  N42  1  0.821839  0.269572  0.667048  1
  N  N43  1  0.178161  0.730428  0.667048  1
  N  N44  1  0.730428  0.821839  0.832952  1
  N  N45  1  0.269572  0.178161  0.832952  1
  N  N46  1  0.178161  0.730428  0.332952  1
  N  N47  1  0.821839  0.269572  0.332952  1
