# generated using pymatgen
data_LiCo3OF5
_symmetry_space_group_name_H-M   'P 1'
_cell_length_a   6.02539302
_cell_length_b   6.17287148
_cell_length_c   6.18596322
_cell_angle_alpha   92.31214848
_cell_angle_beta   91.39414520
_cell_angle_gamma   92.21886862
_symmetry_Int_Tables_number   1
_chemical_formula_structural   LiCo3OF5
_chemical_formula_sum   'Li2 Co6 O2 F10'
_cell_volume   229.64362944
_cell_formula_units_Z   2
loop_
 _symmetry_equiv_pos_site_id
 _symmetry_equiv_pos_as_xyz
  1  'x, y, z'
loop_
 _atom_site_type_symbol
 _atom_site_label
 _atom_site_symmetry_multiplicity
 _atom_site_fract_x
 _atom_site_fract_y
 _atom_site_fract_z
 _atom_site_occupancy
  Li  Li0  1  0.507026  0.493197  0.498496  1
  Li  Li1  1  0.994087  0.983148  0.986331  1
  Co  Co2  1  0.273368  0.094171  0.556899  1
  Co  Co3  1  0.930894  0.452653  0.758355  1
  Co  Co4  1  0.415163  0.735044  0.916052  1
  Co  Co5  1  0.555370  0.244440  0.100287  1
  Co  Co6  1  0.066716  0.570445  0.232174  1
  Co  Co7  1  0.749491  0.945791  0.434667  1
  O  O8  1  0.092269  0.671982  0.936843  1
  O  O9  1  0.543114  0.171905  0.401354  1
  F  F10  1  0.318849  0.089891  0.899521  1
  F  F11  1  0.932218  0.100940  0.691727  1
  F  F12  1  0.596333  0.450097  0.820963  1
  F  F13  1  0.178738  0.413838  0.528733  1
  F  F14  1  0.817914  0.613942  0.457847  1
  F  F15  1  0.456290  0.803135  0.601459  1
  F  F16  1  0.903722  0.293544  0.089100  1
  F  F17  1  0.414048  0.543497  0.199320  1
  F  F18  1  0.077770  0.927865  0.321722  1
  F  F19  1  0.676620  0.900477  0.068147  1
