# generated using pymatgen
data_Li2Mn3(BO3)3
_symmetry_space_group_name_H-M   'P 1'
_cell_length_a   5.29948789
_cell_length_b   5.84206972
_cell_length_c   13.32200709
_cell_angle_alpha   96.96851169
_cell_angle_beta   91.03624788
_cell_angle_gamma   113.55685640
_symmetry_Int_Tables_number   1
_chemical_formula_structural   Li2Mn3(BO3)3
_chemical_formula_sum   'Li4 Mn6 B6 O18'
_cell_volume   374.27845429
_cell_formula_units_Z   2
loop_
 _symmetry_equiv_pos_site_id
 _symmetry_equiv_pos_as_xyz
  1  'x, y, z'
loop_
 _atom_site_type_symbol
 _atom_site_label
 _atom_site_symmetry_multiplicity
 _atom_site_fract_x
 _atom_site_fract_y
 _atom_site_fract_z
 _atom_site_occupancy
  Li  Li0  1  0.748308  0.806640  0.143388  1
  Li  Li1  1  0.251692  0.193360  0.856612  1
  Li  Li2  1  0.404135  0.166901  0.478881  1
  Li  Li3  1  0.595865  0.833099  0.521119  1
  Mn  Mn4  1  0.228188  0.780445  0.033711  1
  Mn  Mn5  1  0.771812  0.219555  0.966289  1
  Mn  Mn6  1  0.434448  0.536815  0.292867  1
  Mn  Mn7  1  0.885126  0.116738  0.362603  1
  Mn  Mn8  1  0.565552  0.463185  0.707133  1
  Mn  Mn9  1  0.114874  0.883262  0.637397  1
  B  B10  1  0.014776  0.672795  0.413389  1
  B  B11  1  0.656254  0.668279  0.927106  1
  B  B12  1  0.343746  0.331721  0.072894  1
  B  B13  1  0.985224  0.327205  0.586611  1
  B  B14  1  0.674906  0.003381  0.747891  1
  B  B15  1  0.325094  0.996619  0.252109  1
  O  O16  1  0.782899  0.729154  0.403435  1
  O  O17  1  0.863628  0.587399  0.945595  1
  O  O18  1  0.639736  0.854051  0.003119  1
  O  O19  1  0.217181  0.798374  0.491142  1
  O  O20  1  0.462311  0.557224  0.848820  1
  O  O21  1  0.050558  0.496129  0.342064  1
  O  O22  1  0.136372  0.412601  0.054405  1
  O  O23  1  0.949442  0.503871  0.657936  1
  O  O24  1  0.537689  0.442776  0.151180  1
  O  O25  1  0.782819  0.201626  0.508858  1
  O  O26  1  0.360264  0.145949  0.996881  1
  O  O27  1  0.217101  0.270846  0.596565  1
  O  O28  1  0.305303  0.167109  0.333181  1
  O  O29  1  0.866028  0.088963  0.827977  1
  O  O30  1  0.133972  0.911037  0.172023  1
  O  O31  1  0.694697  0.832891  0.666819  1
  O  O32  1  0.458290  0.083427  0.741317  1
  O  O33  1  0.541710  0.916573  0.258683  1
