# generated using pymatgen
data_Li4Fe3OF8
_symmetry_space_group_name_H-M   'P 1'
_cell_length_a   5.31607766
_cell_length_b   5.76209174
_cell_length_c   24.30000961
_cell_angle_alpha   90.00000000
_cell_angle_beta   90.00000000
_cell_angle_gamma   90.00000000
_symmetry_Int_Tables_number   1
_chemical_formula_structural   Li4Fe3OF8
_chemical_formula_sum   'Li16 Fe12 O4 F32'
_cell_volume   744.35126470
_cell_formula_units_Z   4
loop_
 _symmetry_equiv_pos_site_id
 _symmetry_equiv_pos_as_xyz
  1  'x, y, z'
loop_
 _atom_site_type_symbol
 _atom_site_label
 _atom_site_symmetry_multiplicity
 _atom_site_fract_x
 _atom_site_fract_y
 _atom_site_fract_z
 _atom_site_occupancy
  Li  Li0  1  0.996656  0.988466  0.573886  1
  Li  Li1  1  0.996656  0.988466  0.426114  1
  Li  Li2  1  0.551270  0.998695  0.782174  1
  Li  Li3  1  0.551270  0.998695  0.217826  1
  Li  Li4  1  0.051270  0.001305  0.717826  1
  Li  Li5  1  0.051270  0.001305  0.282174  1
  Li  Li6  1  0.496656  0.011534  0.073886  1
  Li  Li7  1  0.496656  0.011534  0.926114  1
  Li  Li8  1  0.483288  0.379697  0.435661  1
  Li  Li9  1  0.483288  0.379697  0.564339  1
  Li  Li10  1  0.936900  0.504028  0.217102  1
  Li  Li11  1  0.936900  0.504028  0.782898  1
  Li  Li12  1  0.436900  0.495972  0.717102  1
  Li  Li13  1  0.436900  0.495972  0.282898  1
  Li  Li14  1  0.983288  0.620303  0.064339  1
  Li  Li15  1  0.983288  0.620303  0.935661  1
  Fe  Fe16  1  0.467044  0.918758  0.500000  1
  Fe  Fe17  1  0.000053  0.993871  0.138327  1
  Fe  Fe18  1  0.000053  0.993871  0.861673  1
  Fe  Fe19  1  0.500053  0.006129  0.638327  1
  Fe  Fe20  1  0.500053  0.006129  0.361673  1
  Fe  Fe21  1  0.967044  0.081242  0.000000  1
  Fe  Fe22  1  0.990773  0.385336  0.500000  1
  Fe  Fe23  1  0.494730  0.485247  0.142156  1
  Fe  Fe24  1  0.494730  0.485247  0.857844  1
  Fe  Fe25  1  0.994730  0.514753  0.642156  1
  Fe  Fe26  1  0.994730  0.514753  0.357844  1
  Fe  Fe27  1  0.490773  0.614664  0.000000  1
  O  O28  1  0.344615  0.062045  0.433050  1
  O  O29  1  0.344615  0.062045  0.566950  1
  O  O30  1  0.844615  0.937955  0.933050  1
  O  O31  1  0.844615  0.937955  0.066950  1
  F  F32  1  0.290528  0.732722  0.101047  1
  F  F33  1  0.290528  0.732722  0.898953  1
  F  F34  1  0.733554  0.743366  0.177193  1
  F  F35  1  0.733554  0.743366  0.822807  1
  F  F36  1  0.364243  0.944703  0.000000  1
  F  F37  1  0.190685  0.973692  0.210463  1
  F  F38  1  0.190685  0.973692  0.789537  1
  F  F39  1  0.690685  0.026308  0.710463  1
  F  F40  1  0.690685  0.026308  0.289537  1
  F  F41  1  0.864243  0.055297  0.500000  1
  F  F42  1  0.233554  0.256634  0.677193  1
  F  F43  1  0.233554  0.256634  0.322807  1
  F  F44  1  0.790528  0.267278  0.601047  1
  F  F45  1  0.790528  0.267278  0.398953  1
  F  F46  1  0.282954  0.220424  0.890639  1
  F  F47  1  0.282954  0.220424  0.109361  1
  F  F48  1  0.748126  0.244964  0.177322  1
  F  F49  1  0.748126  0.244964  0.822678  1
  F  F50  1  0.125261  0.460431  0.000000  1
  F  F51  1  0.288828  0.477321  0.214073  1
  F  F52  1  0.288828  0.477321  0.785927  1
  F  F53  1  0.184151  0.553291  0.560269  1
  F  F54  1  0.184151  0.553291  0.439731  1
  F  F55  1  0.684151  0.446709  0.060269  1
  F  F56  1  0.684151  0.446709  0.939731  1
  F  F57  1  0.788828  0.522679  0.714073  1
  F  F58  1  0.788828  0.522679  0.285927  1
  F  F59  1  0.625261  0.539569  0.500000  1
  F  F60  1  0.248126  0.755036  0.677322  1
  F  F61  1  0.248126  0.755036  0.322678  1
  F  F62  1  0.782954  0.779576  0.609361  1
  F  F63  1  0.782954  0.779576  0.390639  1
