# generated using pymatgen
data_Co2O3F
_symmetry_space_group_name_H-M   'P 1'
_cell_length_a   5.39550968
_cell_length_b   5.39550968
_cell_length_c   8.67499534
_cell_angle_alpha   86.68379429
_cell_angle_beta   93.31620571
_cell_angle_gamma   108.60352532
_symmetry_Int_Tables_number   1
_chemical_formula_structural   Co2O3F
_chemical_formula_sum   'Co8 O12 F4'
_cell_volume   238.73872793
_cell_formula_units_Z   4
loop_
 _symmetry_equiv_pos_site_id
 _symmetry_equiv_pos_as_xyz
  1  'x, y, z'
loop_
 _atom_site_type_symbol
 _atom_site_label
 _atom_site_symmetry_multiplicity
 _atom_site_fract_x
 _atom_site_fract_y
 _atom_site_fract_z
 _atom_site_occupancy
  Co  Co0  1  0.134127  0.865873  0.640341  1
  Co  Co1  1  0.865873  0.134127  0.359659  1
  Co  Co2  1  0.759564  0.240436  0.741609  1
  Co  Co3  1  0.500000  0.500000  0.500000  1
  Co  Co4  1  0.000000  0.000000  0.000000  1
  Co  Co5  1  0.396398  0.603602  0.863877  1
  Co  Co6  1  0.603602  0.396398  0.136123  1
  Co  Co7  1  0.240436  0.759564  0.258391  1
  O  O8  1  0.064382  0.536773  0.753939  1
  O  O9  1  0.458148  0.541852  0.284291  1
  O  O10  1  0.723789  0.276211  0.526080  1
  O  O11  1  0.975296  0.024704  0.778184  1
  O  O12  1  0.541852  0.458148  0.715709  1
  O  O13  1  0.276211  0.723789  0.473920  1
  O  O14  1  0.024704  0.975296  0.221816  1
  O  O15  1  0.463227  0.935618  0.753939  1
  O  O16  1  0.935618  0.463227  0.246061  1
  O  O17  1  0.694905  0.694905  0.000000  1
  O  O18  1  0.305095  0.305095  0.000000  1
  O  O19  1  0.536773  0.064382  0.246061  1
  F  F20  1  0.189961  0.189961  0.500000  1
  F  F21  1  0.810039  0.810039  0.500000  1
  F  F22  1  0.231194  0.768806  0.032223  1
  F  F23  1  0.768806  0.231194  0.967777  1
