# generated using pymatgen
data_Mn3O5F
_symmetry_space_group_name_H-M   'P 1'
_cell_length_a   6.42920724
_cell_length_b   3.01623518
_cell_length_c   10.17295146
_cell_angle_alpha   90.00000000
_cell_angle_beta   108.37853536
_cell_angle_gamma   90.00000000
_symmetry_Int_Tables_number   1
_chemical_formula_structural   Mn3O5F
_chemical_formula_sum   'Mn6 O10 F2'
_cell_volume   187.21177234
_cell_formula_units_Z   2
loop_
 _symmetry_equiv_pos_site_id
 _symmetry_equiv_pos_as_xyz
  1  'x, y, z'
loop_
 _atom_site_type_symbol
 _atom_site_label
 _atom_site_symmetry_multiplicity
 _atom_site_fract_x
 _atom_site_fract_y
 _atom_site_fract_z
 _atom_site_occupancy
  Mn  Mn0  1  0.992987  0.000000  0.985675  1
  Mn  Mn1  1  0.813191  0.500000  0.660453  1
  Mn  Mn2  1  0.501016  0.500000  0.000532  1
  Mn  Mn3  1  0.664827  0.000000  0.332033  1
  Mn  Mn4  1  0.347913  0.000000  0.671585  1
  Mn  Mn5  1  0.173704  0.500000  0.347780  1
  O  O6  1  0.933186  0.500000  0.863282  1
  O  O7  1  0.305521  0.000000  0.001103  1
  O  O8  1  0.696819  0.000000  0.001456  1
  O  O9  1  0.359146  0.000000  0.333927  1
  O  O10  1  0.735215  0.500000  0.461048  1
  O  O11  1  0.397501  0.500000  0.798193  1
  O  O12  1  0.268889  0.500000  0.542954  1
  O  O13  1  0.602293  0.500000  0.204609  1
  O  O14  1  0.974567  0.000000  0.333221  1
  O  O15  1  0.635483  0.000000  0.664890  1
  F  F16  1  0.031898  0.000000  0.666151  1
  F  F17  1  0.065846  0.500000  0.131108  1
