# generated using pymatgen
data_Mn3O5F
_symmetry_space_group_name_H-M   'P 1'
_cell_length_a   5.45439369
_cell_length_b   5.45439369
_cell_length_c   7.24299724
_cell_angle_alpha   71.21801503
_cell_angle_beta   108.78198497
_cell_angle_gamma   109.17494398
_symmetry_Int_Tables_number   1
_chemical_formula_structural   Mn3O5F
_chemical_formula_sum   'Mn6 O10 F2'
_cell_volume   186.97203440
_cell_formula_units_Z   2
loop_
 _symmetry_equiv_pos_site_id
 _symmetry_equiv_pos_as_xyz
  1  'x, y, z'
loop_
 _atom_site_type_symbol
 _atom_site_label
 _atom_site_symmetry_multiplicity
 _atom_site_fract_x
 _atom_site_fract_y
 _atom_site_fract_z
 _atom_site_occupancy
  Mn  Mn0  1  0.325882  0.674118  0.844455  1
  Mn  Mn1  1  0.672227  0.327773  0.668930  1
  Mn  Mn2  1  0.343808  0.656192  0.320459  1
  Mn  Mn3  1  0.669075  0.330925  0.162890  1
  Mn  Mn4  1  0.996126  0.003874  0.508439  1
  Mn  Mn5  1  0.995279  0.004721  0.991281  1
  O  O6  1  0.972785  0.638675  0.666897  1
  O  O7  1  0.637615  0.970542  0.334952  1
  O  O8  1  0.768803  0.231197  0.961215  1
  O  O9  1  0.896747  0.103253  0.705211  1
  O  O10  1  0.227495  0.772505  0.033551  1
  O  O11  1  0.569124  0.430876  0.372301  1
  O  O12  1  0.029458  0.362385  0.334952  1
  O  O13  1  0.361325  0.027215  0.666897  1
  O  O14  1  0.692411  0.695996  0.999514  1
  O  O15  1  0.304004  0.307589  0.999514  1
  F  F16  1  0.104633  0.895367  0.295932  1
  F  F17  1  0.433202  0.566798  0.632612  1
