# generated using pymatgen
data_CaSnS3
_symmetry_space_group_name_H-M   'P 1'
_cell_length_a   6.55117334
_cell_length_b   6.91507418
_cell_length_c   10.30842049
_cell_angle_alpha   90.00000000
_cell_angle_beta   90.00000000
_cell_angle_gamma   90.00000000
_symmetry_Int_Tables_number   1
_chemical_formula_structural   CaSnS3
_chemical_formula_sum   'Ca4 Sn4 S12'
_cell_volume   466.99051478
_cell_formula_units_Z   4
loop_
 _symmetry_equiv_pos_site_id
 _symmetry_equiv_pos_as_xyz
  1  'x, y, z'
loop_
 _atom_site_type_symbol
 _atom_site_label
 _atom_site_symmetry_multiplicity
 _atom_site_fract_x
 _atom_site_fract_y
 _atom_site_fract_z
 _atom_site_occupancy
  Ca  Ca0  1  0.762152  0.250000  0.911301  1
  Ca  Ca1  1  0.262152  0.250000  0.588699  1
  Ca  Ca2  1  0.237848  0.750000  0.088699  1
  Ca  Ca3  1  0.737848  0.750000  0.411301  1
  Sn  Sn4  1  0.125175  0.250000  0.246682  1
  Sn  Sn5  1  0.625175  0.250000  0.253318  1
  Sn  Sn6  1  0.874825  0.750000  0.753318  1
  Sn  Sn7  1  0.374825  0.750000  0.746682  1
  S  S8  1  0.895805  0.250000  0.444188  1
  S  S9  1  0.395805  0.250000  0.055812  1
  S  S10  1  0.104195  0.750000  0.555812  1
  S  S11  1  0.604195  0.750000  0.944188  1
  S  S12  1  0.886648  0.502290  0.155175  1
  S  S13  1  0.386648  0.997710  0.344825  1
  S  S14  1  0.113352  0.002290  0.844825  1
  S  S15  1  0.613352  0.497710  0.655175  1
  S  S16  1  0.113352  0.497710  0.844825  1
  S  S17  1  0.613352  0.002290  0.655175  1
  S  S18  1  0.886648  0.997710  0.155175  1
  S  S19  1  0.386648  0.502290  0.344825  1
