# generated using pymatgen
data_Li2Mn3(BO3)3
_symmetry_space_group_name_H-M   'P 1'
_cell_length_a   6.20586423
_cell_length_b   7.82164638
_cell_length_c   9.10000419
_cell_angle_alpha   109.23152307
_cell_angle_beta   107.50501320
_cell_angle_gamma   100.17338111
_symmetry_Int_Tables_number   1
_chemical_formula_structural   Li2Mn3(BO3)3
_chemical_formula_sum   'Li4 Mn6 B6 O18'
_cell_volume   378.64894070
_cell_formula_units_Z   2
loop_
 _symmetry_equiv_pos_site_id
 _symmetry_equiv_pos_as_xyz
  1  'x, y, z'
loop_
 _atom_site_type_symbol
 _atom_site_label
 _atom_site_symmetry_multiplicity
 _atom_site_fract_x
 _atom_site_fract_y
 _atom_site_fract_z
 _atom_site_occupancy
  Li  Li0  1  0.016260  0.329402  0.285603  1
  Li  Li1  1  0.336872  0.995257  0.394106  1
  Li  Li2  1  0.654899  0.342025  0.052312  1
  Li  Li3  1  0.004108  0.659764  0.718532  1
  Mn  Mn4  1  0.398945  0.637622  0.619009  1
  Mn  Mn5  1  0.298771  0.047159  0.726656  1
  Mn  Mn6  1  0.040440  0.294923  0.929820  1
  Mn  Mn7  1  0.966733  0.714755  0.058474  1
  Mn  Mn8  1  0.707395  0.944631  0.274588  1
  Mn  Mn9  1  0.610873  0.364272  0.385621  1
  B  B10  1  0.715056  0.978629  0.955946  1
  B  B11  1  0.619027  0.370803  0.719590  1
  B  B12  1  0.961390  0.694849  0.386354  1
  B  B13  1  0.057908  0.293553  0.603629  1
  B  B14  1  0.354234  0.633122  0.282272  1
  B  B15  1  0.282923  0.026677  0.048267  1
  O  O16  1  0.541747  0.920668  0.794102  1
  O  O17  1  0.331369  0.501088  0.354286  1
  O  O18  1  0.858330  0.162861  0.046139  1
  O  O19  1  0.328947  0.156775  0.976016  1
  O  O20  1  0.744900  0.430043  0.891818  1
  O  O21  1  0.091886  0.765439  0.559264  1
  O  O22  1  0.460901  0.190535  0.621729  1
  O  O23  1  0.811939  0.511685  0.292601  1
  O  O24  1  0.997790  0.815883  0.304506  1
  O  O25  1  0.051461  0.169274  0.688305  1
  O  O26  1  0.187869  0.479809  0.695491  1
  O  O27  1  0.513632  0.808953  0.372007  1
  O  O28  1  0.913753  0.224736  0.432984  1
  O  O29  1  0.195247  0.576403  0.113802  1
  O  O30  1  0.722187  0.843408  0.026539  1
  O  O31  1  0.119065  0.850436  0.947612  1
  O  O32  1  0.667712  0.495016  0.643974  1
  O  O33  1  0.408917  0.080057  0.219516  1
