# generated using pymatgen
data_LiMn2(BO3)2
_symmetry_space_group_name_H-M   'P 1'
_cell_length_a   5.30009372
_cell_length_b   5.80270509
_cell_length_c   18.01444645
_cell_angle_alpha   83.85873933
_cell_angle_beta   82.19576822
_cell_angle_gamma   65.86495321
_symmetry_Int_Tables_number   1
_chemical_formula_structural   LiMn2(BO3)2
_chemical_formula_sum   'Li4 Mn8 B8 O24'
_cell_volume   500.10609897
_cell_formula_units_Z   4
loop_
 _symmetry_equiv_pos_site_id
 _symmetry_equiv_pos_as_xyz
  1  'x, y, z'
loop_
 _atom_site_type_symbol
 _atom_site_label
 _atom_site_symmetry_multiplicity
 _atom_site_fract_x
 _atom_site_fract_y
 _atom_site_fract_z
 _atom_site_occupancy
  Li  Li0  1  0.820009  0.779152  0.389804  1
  Li  Li1  1  0.179991  0.220848  0.610196  1
  Li  Li2  1  0.324832  0.024814  0.140575  1
  Li  Li3  1  0.675168  0.975186  0.859425  1
  Mn  Mn4  1  0.285904  0.773017  0.473304  1
  Mn  Mn5  1  0.715788  0.717324  0.029838  1
  Mn  Mn6  1  0.714096  0.226983  0.526696  1
  Mn  Mn7  1  0.217091  0.465530  0.280236  1
  Mn  Mn8  1  0.284212  0.282676  0.970162  1
  Mn  Mn9  1  0.782909  0.534470  0.719764  1
  Mn  Mn10  1  0.785338  0.019216  0.223264  1
  Mn  Mn11  1  0.214662  0.980784  0.776736  1
  B  B12  1  0.698900  0.562047  0.193947  1
  B  B13  1  0.200204  0.819784  0.937769  1
  B  B14  1  0.807407  0.684795  0.553899  1
  B  B15  1  0.192593  0.315205  0.446101  1
  B  B16  1  0.301100  0.437953  0.806053  1
  B  B17  1  0.704622  0.061806  0.690354  1
  B  B18  1  0.295378  0.938194  0.309646  1
  B  B19  1  0.799796  0.180216  0.062231  1
  O  O20  1  0.443831  0.868327  0.369950  1
  O  O21  1  0.609749  0.600107  0.538576  1
  O  O22  1  0.073401  0.871607  0.304208  1
  O  O23  1  0.858160  0.856532  0.497030  1
  O  O24  1  0.550178  0.659086  0.134175  1
  O  O25  1  0.956428  0.590920  0.612738  1
  O  O26  1  0.651784  0.376674  0.244280  1
  O  O27  1  0.129822  0.660142  0.992095  1
  O  O28  1  0.390251  0.399893  0.461424  1
  O  O29  1  0.886571  0.655293  0.212778  1
  O  O30  1  0.348216  0.623326  0.755720  1
  O  O31  1  0.043572  0.409080  0.387262  1
  O  O32  1  0.449822  0.340914  0.865825  1
  O  O33  1  0.141840  0.143468  0.502970  1
  O  O34  1  0.586197  0.105564  0.051645  1
  O  O35  1  0.113429  0.344707  0.787222  1
  O  O36  1  0.371940  0.075595  0.247212  1
  O  O37  1  0.870178  0.339858  0.007905  1
  O  O38  1  0.556169  0.131673  0.630050  1
  O  O39  1  0.949629  0.093052  0.123126  1
  O  O40  1  0.628060  0.924405  0.752788  1
  O  O41  1  0.413803  0.894436  0.948355  1
  O  O42  1  0.926599  0.128393  0.695792  1
  O  O43  1  0.050371  0.906948  0.876874  1
