# generated using pymatgen
data_Zr6Al16Ru7
_symmetry_space_group_name_H-M   'P 1'
_cell_length_a   8.74778810
_cell_length_b   8.74778810
_cell_length_c   8.74778810
_cell_angle_alpha   60.00000000
_cell_angle_beta   60.00000000
_cell_angle_gamma   60.00000000
_symmetry_Int_Tables_number   1
_chemical_formula_structural   Zr6Al16Ru7
_chemical_formula_sum   'Zr6 Al16 Ru7'
_cell_volume   473.34714948
_cell_formula_units_Z   1
loop_
 _symmetry_equiv_pos_site_id
 _symmetry_equiv_pos_as_xyz
  1  'x, y, z'
loop_
 _atom_site_type_symbol
 _atom_site_label
 _atom_site_symmetry_multiplicity
 _atom_site_fract_x
 _atom_site_fract_y
 _atom_site_fract_z
 _atom_site_occupancy
  Zr  Zr0  1  0.203705  0.796295  0.796295  1
  Zr  Zr1  1  0.796295  0.203705  0.203705  1
  Zr  Zr2  1  0.796295  0.796295  0.203705  1
  Zr  Zr3  1  0.203705  0.796295  0.203705  1
  Zr  Zr4  1  0.203705  0.203705  0.796295  1
  Zr  Zr5  1  0.796295  0.203705  0.796295  1
  Al  Al6  1  0.163456  0.509631  0.163456  1
  Al  Al7  1  0.163456  0.163456  0.163456  1
  Al  Al8  1  0.163456  0.163456  0.509631  1
  Al  Al9  1  0.509631  0.163456  0.163456  1
  Al  Al10  1  0.836544  0.490369  0.836544  1
  Al  Al11  1  0.836544  0.836544  0.836544  1
  Al  Al12  1  0.490369  0.836544  0.836544  1
  Al  Al13  1  0.836544  0.836544  0.490369  1
  Al  Al14  1  0.380520  0.858439  0.380520  1
  Al  Al15  1  0.380520  0.380520  0.380520  1
  Al  Al16  1  0.380520  0.380520  0.858439  1
  Al  Al17  1  0.858439  0.380520  0.380520  1
  Al  Al18  1  0.619480  0.141561  0.619480  1
  Al  Al19  1  0.619480  0.619480  0.619480  1
  Al  Al20  1  0.141561  0.619480  0.619480  1
  Al  Al21  1  0.619480  0.619480  0.141561  1
  Ru  Ru22  1  0.500000  0.000000  0.000000  1
  Ru  Ru23  1  0.000000  0.500000  0.500000  1
  Ru  Ru24  1  0.000000  0.000000  0.500000  1
  Ru  Ru25  1  0.500000  0.000000  0.500000  1
  Ru  Ru26  1  0.500000  0.500000  1.000000  1
  Ru  Ru27  1  1.000000  0.500000  0.000000  1
  Ru  Ru28  1  0.500000  0.500000  0.500000  1
