# generated using pymatgen
data_V2(OF)3
_symmetry_space_group_name_H-M   'P 1'
_cell_length_a   5.23207445
_cell_length_b   5.23969723
_cell_length_c   13.28538567
_cell_angle_alpha   90.87504312
_cell_angle_beta   89.64753027
_cell_angle_gamma   119.41869839
_symmetry_Int_Tables_number   1
_chemical_formula_structural   V2(OF)3
_chemical_formula_sum   'V6 O9 F9'
_cell_volume   317.21079764
_cell_formula_units_Z   3
loop_
 _symmetry_equiv_pos_site_id
 _symmetry_equiv_pos_as_xyz
  1  'x, y, z'
loop_
 _atom_site_type_symbol
 _atom_site_label
 _atom_site_symmetry_multiplicity
 _atom_site_fract_x
 _atom_site_fract_y
 _atom_site_fract_z
 _atom_site_occupancy
  V  V0  1  0.022421  0.988671  0.490504  1
  V  V1  1  0.993507  0.971403  0.993130  1
  V  V2  1  0.321341  0.633294  0.819384  1
  V  V3  1  0.680929  0.308395  0.660227  1
  V  V4  1  0.379791  0.655999  0.332703  1
  V  V5  1  0.699449  0.362734  0.151936  1
  O  O6  1  0.001024  0.430918  0.756642  1
  O  O7  1  0.096900  0.778934  0.919132  1
  O  O8  1  0.761488  0.100790  0.584443  1
  O  O9  1  0.425153  0.433273  0.252411  1
  O  O10  1  0.556601  0.568534  0.753777  1
  O  O11  1  0.229550  0.901445  0.417560  1
  O  O12  1  0.889599  0.237457  0.086530  1
  O  O13  1  0.660828  0.759082  0.414463  1
  O  O14  1  0.753120  0.658815  0.086431  1
  F  F15  1  0.408771  0.995641  0.752745  1
  F  F16  1  0.086656  0.342811  0.415209  1
  F  F17  1  0.324689  0.090802  0.092685  1
  F  F18  1  0.253365  0.359230  0.924036  1
  F  F19  1  0.335255  0.260990  0.584034  1
  F  F20  1  0.985099  0.564877  0.252880  1
  F  F21  1  0.557572  0.992907  0.252881  1
  F  F22  1  0.657689  0.921654  0.915040  1
  F  F23  1  0.919205  0.681346  0.591219  1
