# generated using pymatgen
data_TaZn2
_symmetry_space_group_name_H-M   'P 1'
_cell_length_a   5.04750546
_cell_length_b   5.04750546
_cell_length_c   16.32455412
_cell_angle_alpha   90.00000000
_cell_angle_beta   90.00000000
_cell_angle_gamma   120.00000000
_symmetry_Int_Tables_number   1
_chemical_formula_structural   TaZn2
_chemical_formula_sum   'Ta8 Zn16'
_cell_volume   360.18494328
_cell_formula_units_Z   8
loop_
 _symmetry_equiv_pos_site_id
 _symmetry_equiv_pos_as_xyz
  1  'x, y, z'
loop_
 _atom_site_type_symbol
 _atom_site_label
 _atom_site_symmetry_multiplicity
 _atom_site_fract_x
 _atom_site_fract_y
 _atom_site_fract_z
 _atom_site_occupancy
  Ta  Ta0  1  0.000000  0.000000  0.091326  1
  Ta  Ta1  1  0.000000  0.000000  0.591326  1
  Ta  Ta2  1  0.000000  0.000000  0.908674  1
  Ta  Ta3  1  0.000000  0.000000  0.408674  1
  Ta  Ta4  1  0.333333  0.666667  0.843654  1
  Ta  Ta5  1  0.666667  0.333333  0.343654  1
  Ta  Ta6  1  0.666667  0.333333  0.156346  1
  Ta  Ta7  1  0.333333  0.666667  0.656346  1
  Zn  Zn8  1  0.160502  0.321004  0.250000  1
  Zn  Zn9  1  0.839498  0.678996  0.750000  1
  Zn  Zn10  1  0.678996  0.839498  0.250000  1
  Zn  Zn11  1  0.160502  0.839498  0.250000  1
  Zn  Zn12  1  0.839498  0.160502  0.750000  1
  Zn  Zn13  1  0.321004  0.160502  0.750000  1
  Zn  Zn14  1  0.500000  0.000000  0.000000  1
  Zn  Zn15  1  0.500000  0.000000  0.500000  1
  Zn  Zn16  1  0.000000  0.500000  0.000000  1
  Zn  Zn17  1  0.500000  0.500000  0.000000  1
  Zn  Zn18  1  0.500000  0.500000  0.500000  1
  Zn  Zn19  1  0.000000  0.500000  0.500000  1
  Zn  Zn20  1  0.333333  0.666667  0.127012  1
  Zn  Zn21  1  0.666667  0.333333  0.627012  1
  Zn  Zn22  1  0.666667  0.333333  0.872988  1
  Zn  Zn23  1  0.333333  0.666667  0.372988  1
