# generated using pymatgen
data_Ca3Ni7B2
_symmetry_space_group_name_H-M   'P 1'
_cell_length_a   7.68617533
_cell_length_b   7.68617533
_cell_length_c   7.68617533
_cell_angle_alpha   39.02103226
_cell_angle_beta   39.02103226
_cell_angle_gamma   39.02103226
_symmetry_Int_Tables_number   1
_chemical_formula_structural   Ca3Ni7B2
_chemical_formula_sum   'Ca3 Ni7 B2'
_cell_volume   161.88156960
_cell_formula_units_Z   1
loop_
 _symmetry_equiv_pos_site_id
 _symmetry_equiv_pos_as_xyz
  1  'x, y, z'
loop_
 _atom_site_type_symbol
 _atom_site_label
 _atom_site_symmetry_multiplicity
 _atom_site_fract_x
 _atom_site_fract_y
 _atom_site_fract_z
 _atom_site_occupancy
  Ca  Ca0  1  0.355154  0.355154  0.355154  1
  Ca  Ca1  1  0.644846  0.644846  0.644846  1
  Ca  Ca2  1  0.500000  0.500000  0.500000  1
  Ni  Ni3  1  0.428041  0.938856  0.938856  1
  Ni  Ni4  1  0.938856  0.428041  0.938856  1
  Ni  Ni5  1  0.938856  0.938856  0.428041  1
  Ni  Ni6  1  0.061144  0.061144  0.571959  1
  Ni  Ni7  1  0.061144  0.571959  0.061144  1
  Ni  Ni8  1  0.571959  0.061144  0.061144  1
  Ni  Ni9  1  0.000000  0.000000  0.000000  1
  B  B10  1  0.169063  0.169063  0.169063  1
  B  B11  1  0.830937  0.830937  0.830937  1
