# generated using pymatgen
data_Li9Mn7V12O48
_symmetry_space_group_name_H-M   'P 1'
_cell_length_a   5.02933568
_cell_length_b   10.20009917
_cell_length_c   17.15220118
_cell_angle_alpha   90.02997908
_cell_angle_beta   90.57636168
_cell_angle_gamma   90.04430544
_symmetry_Int_Tables_number   1
_chemical_formula_structural   Li9Mn7V12O48
_chemical_formula_sum   'Li9 Mn7 V12 O48'
_cell_volume   879.85825796
_cell_formula_units_Z   1
loop_
 _symmetry_equiv_pos_site_id
 _symmetry_equiv_pos_as_xyz
  1  'x, y, z'
loop_
 _atom_site_type_symbol
 _atom_site_label
 _atom_site_symmetry_multiplicity
 _atom_site_fract_x
 _atom_site_fract_y
 _atom_site_fract_z
 _atom_site_occupancy
  Li  Li0  1  0.097351  0.749467  0.749333  1
  Li  Li1  1  0.247777  0.582529  0.032310  1
  Li  Li2  1  0.257145  0.420444  0.527940  1
  Li  Li3  1  0.258650  0.079409  0.527531  1
  Li  Li4  1  0.244934  0.744647  0.195797  1
  Li  Li5  1  0.748520  0.246712  0.808235  1
  Li  Li6  1  0.753889  0.081296  0.970624  1
  Li  Li7  1  0.752606  0.747300  0.299094  1
  Li  Li8  1  0.902167  0.249811  0.251475  1
  Mn  Mn9  1  0.203615  0.248562  0.699614  1
  Mn  Mn10  1  0.237851  0.934725  0.025432  1
  Mn  Mn11  1  0.403966  0.250675  0.249469  1
  Mn  Mn12  1  0.597262  0.750341  0.751509  1
  Mn  Mn13  1  0.760016  0.932118  0.472486  1
  Mn  Mn14  1  0.758224  0.567417  0.472667  1
  Mn  Mn15  1  0.763980  0.433417  0.977468  1
  V  V16  1  0.225339  0.252868  0.056430  1
  V  V17  1  0.225296  0.971467  0.344963  1
  V  V18  1  0.224104  0.528473  0.345205  1
  V  V19  1  0.288674  0.475083  0.846906  1
  V  V20  1  0.285747  0.024410  0.842845  1
  V  V21  1  0.287659  0.749727  0.556211  1
  V  V22  1  0.712394  0.249597  0.441002  1
  V  V23  1  0.716442  0.524926  0.158104  1
  V  V24  1  0.713071  0.975252  0.153654  1
  V  V25  1  0.773380  0.472209  0.656513  1
  V  V26  1  0.775446  0.027023  0.656051  1
  V  V27  1  0.772997  0.752497  0.944327  1
  O  O28  1  0.062984  0.766391  0.004770  1
  O  O29  1  0.065935  0.385136  0.631297  1
  O  O30  1  0.066360  0.115773  0.629752  1
  O  O31  1  0.105161  0.373893  0.787228  1
  O  O32  1  0.086638  0.124520  0.783496  1
  O  O33  1  0.079157  0.880939  0.534135  1
  O  O34  1  0.078211  0.619088  0.533996  1
  O  O35  1  0.087047  0.988751  0.926266  1
  O  O36  1  0.069868  0.506555  0.925177  1
  O  O37  1  0.172705  0.252650  0.157264  1
  O  O38  1  0.175666  0.376070  0.296181  1
  O  O39  1  0.173246  0.121878  0.295343  1
  O  O40  1  0.364554  0.877010  0.792278  1
  O  O41  1  0.365084  0.620205  0.796252  1
  O  O42  1  0.368023  0.748534  0.655363  1
  O  O43  1  0.438453  0.501704  0.427264  1
  O  O44  1  0.441519  0.997205  0.426678  1
  O  O45  1  0.400472  0.108548  0.033837  1
  O  O46  1  0.447802  0.375969  0.032418  1
  O  O47  1  0.396621  0.874288  0.287657  1
  O  O48  1  0.406213  0.625960  0.291425  1
  O  O49  1  0.419602  0.888977  0.119683  1
  O  O50  1  0.447946  0.612455  0.129538  1
  O  O51  1  0.449639  0.249881  0.500300  1
  O  O52  1  0.583428  0.749753  0.491315  1
  O  O53  1  0.576023  0.390286  0.879228  1
  O  O54  1  0.556602  0.108874  0.870519  1
  O  O55  1  0.570705  0.373936  0.708391  1
  O  O56  1  0.567765  0.124856  0.705589  1
  O  O57  1  0.554649  0.876325  0.967666  1
  O  O58  1  0.599834  0.607824  0.965927  1
  O  O59  1  0.596959  0.984484  0.570325  1
  O  O60  1  0.595511  0.514748  0.570762  1
  O  O61  1  0.627502  0.248229  0.341689  1
  O  O62  1  0.633999  0.375832  0.207871  1
  O  O63  1  0.633187  0.121095  0.203719  1
  O  O64  1  0.828090  0.877557  0.707619  1
  O  O65  1  0.828573  0.620127  0.708787  1
  O  O66  1  0.824808  0.753027  0.842173  1
  O  O67  1  0.919840  0.487370  0.071679  1
  O  O68  1  0.931752  0.008304  0.072898  1
  O  O69  1  0.908106  0.394129  0.462519  1
  O  O70  1  0.909204  0.105631  0.462714  1
  O  O71  1  0.890944  0.879443  0.211843  1
  O  O72  1  0.917623  0.617753  0.214649  1
  O  O73  1  0.926160  0.887840  0.378300  1
  O  O74  1  0.925189  0.612131  0.378982  1
  O  O75  1  0.936142  0.265668  0.994047  1
