# generated using pymatgen
data_YNb2NO5
_symmetry_space_group_name_H-M   'P 1'
_cell_length_a   5.29224399
_cell_length_b   5.85005944
_cell_length_c   15.03833979
_cell_angle_alpha   89.93021852
_cell_angle_beta   89.98328238
_cell_angle_gamma   89.21136422
_symmetry_Int_Tables_number   1
_chemical_formula_structural   YNb2NO5
_chemical_formula_sum   'Y4 Nb8 N4 O20'
_cell_volume   465.54166055
_cell_formula_units_Z   4
loop_
 _symmetry_equiv_pos_site_id
 _symmetry_equiv_pos_as_xyz
  1  'x, y, z'
loop_
 _atom_site_type_symbol
 _atom_site_label
 _atom_site_symmetry_multiplicity
 _atom_site_fract_x
 _atom_site_fract_y
 _atom_site_fract_z
 _atom_site_occupancy
  Y  Y0  1  0.264392  0.286501  0.995950  1
  Y  Y1  1  0.737532  0.719490  0.000664  1
  Y  Y2  1  0.740144  0.216433  0.501633  1
  Y  Y3  1  0.264145  0.778933  0.502673  1
  Nb  Nb4  1  0.728372  0.192717  0.825431  1
  Nb  Nb5  1  0.207704  0.817037  0.832258  1
  Nb  Nb6  1  0.206794  0.316441  0.665525  1
  Nb  Nb7  1  0.727946  0.692701  0.673353  1
  Nb  Nb8  1  0.282228  0.310747  0.330624  1
  Nb  Nb9  1  0.792899  0.681242  0.335436  1
  Nb  Nb10  1  0.768653  0.179077  0.159878  1
  Nb  Nb11  1  0.296532  0.807363  0.162316  1
  N  N12  1  0.896003  0.887026  0.754860  1
  N  N13  1  0.892492  0.385487  0.740580  1
  N  N14  1  0.482766  0.069146  0.098245  1
  N  N15  1  0.405422  0.591405  0.084078  1
  O  O16  1  0.090037  0.606052  0.914805  1
  O  O17  1  0.598841  0.400939  0.913034  1
  O  O18  1  0.011619  0.081019  0.904157  1
  O  O19  1  0.502161  0.928844  0.901829  1
  O  O20  1  0.395942  0.139735  0.754204  1
  O  O21  1  0.394711  0.638340  0.742585  1
  O  O22  1  0.496074  0.431775  0.593092  1
  O  O23  1  0.011259  0.582297  0.593822  1
  O  O24  1  0.093812  0.103857  0.581791  1
  O  O25  1  0.597538  0.899397  0.582835  1
  O  O26  1  0.404148  0.100526  0.417184  1
  O  O27  1  0.907286  0.892953  0.418940  1
  O  O28  1  0.992895  0.417213  0.407463  1
  O  O29  1  0.498008  0.571006  0.405691  1
  O  O30  1  0.606710  0.363395  0.259703  1
  O  O31  1  0.112317  0.622904  0.264221  1
  O  O32  1  0.097125  0.133671  0.250351  1
  O  O33  1  0.613263  0.858392  0.248543  1
  O  O34  1  0.974879  0.908792  0.102880  1
  O  O35  1  0.907351  0.387141  0.079362  1
