# generated using pymatgen
data_Pr4Ge7
_symmetry_space_group_name_H-M   'P 1'
_cell_length_a   7.69547255
_cell_length_b   7.69547255
_cell_length_c   12.16882022
_cell_angle_alpha   90.00000000
_cell_angle_beta   90.00000000
_cell_angle_gamma   133.44373060
_symmetry_Int_Tables_number   1
_chemical_formula_structural   Pr4Ge7
_chemical_formula_sum   'Pr8 Ge14'
_cell_volume   523.22154375
_cell_formula_units_Z   2
loop_
 _symmetry_equiv_pos_site_id
 _symmetry_equiv_pos_as_xyz
  1  'x, y, z'
loop_
 _atom_site_type_symbol
 _atom_site_label
 _atom_site_symmetry_multiplicity
 _atom_site_fract_x
 _atom_site_fract_y
 _atom_site_fract_z
 _atom_site_occupancy
  Pr  Pr0  1  0.018957  0.509034  0.119367  1
  Pr  Pr1  1  0.509034  0.018957  0.880633  1
  Pr  Pr2  1  0.981043  0.490966  0.619367  1
  Pr  Pr3  1  0.490966  0.981043  0.380633  1
  Pr  Pr4  1  0.996401  0.003599  0.250000  1
  Pr  Pr5  1  0.003599  0.996401  0.750000  1
  Pr  Pr6  1  0.487801  0.487801  0.500000  1
  Pr  Pr7  1  0.512199  0.512199  1.000000  1
  Ge  Ge8  1  0.072400  0.896507  0.489997  1
  Ge  Ge9  1  0.896507  0.072400  0.510003  1
  Ge  Ge10  1  0.927600  0.103493  0.989997  1
  Ge  Ge11  1  0.103493  0.927600  0.010003  1
  Ge  Ge12  1  0.081739  0.424515  0.371385  1
  Ge  Ge13  1  0.424515  0.081739  0.628615  1
  Ge  Ge14  1  0.918261  0.575485  0.871385  1
  Ge  Ge15  1  0.575485  0.918261  0.128615  1
  Ge  Ge16  1  0.826672  0.527068  0.339366  1
  Ge  Ge17  1  0.527068  0.826672  0.660634  1
  Ge  Ge18  1  0.173328  0.472932  0.839366  1
  Ge  Ge19  1  0.472932  0.173328  0.160634  1
  Ge  Ge20  1  0.437482  0.562518  0.250000  1
  Ge  Ge21  1  0.562518  0.437482  0.750000  1
