# generated using pymatgen
data_Ba(GaS2)2
_symmetry_space_group_name_H-M   'P 1'
_cell_length_a   12.84023256
_cell_length_b   12.84023256
_cell_length_c   12.84023256
_cell_angle_alpha   90.00000000
_cell_angle_beta   90.00000000
_cell_angle_gamma   90.00000000
_symmetry_Int_Tables_number   1
_chemical_formula_structural   Ba(GaS2)2
_chemical_formula_sum   'Ba12 Ga24 S48'
_cell_volume   2116.98932952
_cell_formula_units_Z   12
loop_
 _symmetry_equiv_pos_site_id
 _symmetry_equiv_pos_as_xyz
  1  'x, y, z'
loop_
 _atom_site_type_symbol
 _atom_site_label
 _atom_site_symmetry_multiplicity
 _atom_site_fract_x
 _atom_site_fract_y
 _atom_site_fract_z
 _atom_site_occupancy
  Ba  Ba0  1  0.000000  0.000000  0.000000  1
  Ba  Ba1  1  0.000000  0.500000  0.500000  1
  Ba  Ba2  1  0.128094  0.871906  0.371906  1
  Ba  Ba3  1  0.128094  0.628094  0.871906  1
  Ba  Ba4  1  0.371906  0.371906  0.371906  1
  Ba  Ba5  1  0.371906  0.128094  0.871906  1
  Ba  Ba6  1  0.500000  0.000000  0.500000  1
  Ba  Ba7  1  0.500000  0.500000  0.000000  1
  Ba  Ba8  1  0.628094  0.871906  0.128094  1
  Ba  Ba9  1  0.628094  0.628094  0.628094  1
  Ba  Ba10  1  0.871906  0.128094  0.628094  1
  Ba  Ba11  1  0.871906  0.371906  0.128094  1
  Ga  Ga12  1  0.126737  0.195729  0.356921  1
  Ga  Ga13  1  0.126737  0.304271  0.856921  1
  Ga  Ga14  1  0.143079  0.626737  0.195729  1
  Ga  Ga15  1  0.143079  0.873263  0.695729  1
  Ga  Ga16  1  0.195729  0.143079  0.626737  1
  Ga  Ga17  1  0.195729  0.356921  0.126737  1
  Ga  Ga18  1  0.304271  0.856921  0.126737  1
  Ga  Ga19  1  0.304271  0.643079  0.626737  1
  Ga  Ga20  1  0.356921  0.126737  0.195729  1
  Ga  Ga21  1  0.356921  0.373263  0.695729  1
  Ga  Ga22  1  0.373263  0.695729  0.356921  1
  Ga  Ga23  1  0.373263  0.804271  0.856921  1
  Ga  Ga24  1  0.626737  0.195729  0.143079  1
  Ga  Ga25  1  0.626737  0.304271  0.643079  1
  Ga  Ga26  1  0.643079  0.626737  0.304271  1
  Ga  Ga27  1  0.643079  0.873263  0.804271  1
  Ga  Ga28  1  0.695729  0.143079  0.873263  1
  Ga  Ga29  1  0.695729  0.356921  0.373263  1
  Ga  Ga30  1  0.804271  0.643079  0.873263  1
  Ga  Ga31  1  0.804271  0.856921  0.373263  1
  Ga  Ga32  1  0.856921  0.126737  0.304271  1
  Ga  Ga33  1  0.856921  0.373263  0.804271  1
  Ga  Ga34  1  0.873263  0.695729  0.143079  1
  Ga  Ga35  1  0.873263  0.804271  0.643079  1
  S  S36  1  0.026572  0.076798  0.270535  1
  S  S37  1  0.026572  0.423202  0.770535  1
  S  S38  1  0.076798  0.270535  0.026572  1
  S  S39  1  0.076798  0.229465  0.526572  1
  S  S40  1  0.127850  0.362316  0.293251  1
  S  S41  1  0.127850  0.137684  0.793251  1
  S  S42  1  0.137684  0.793251  0.127850  1
  S  S43  1  0.137684  0.706749  0.627850  1
  S  S44  1  0.206749  0.627850  0.362316  1
  S  S45  1  0.206749  0.872150  0.862316  1
  S  S46  1  0.229465  0.526572  0.076798  1
  S  S47  1  0.229465  0.973428  0.576798  1
  S  S48  1  0.270535  0.026572  0.076798  1
  S  S49  1  0.270535  0.473428  0.576798  1
  S  S50  1  0.293251  0.127850  0.362316  1
  S  S51  1  0.293251  0.372150  0.862316  1
  S  S52  1  0.362316  0.293251  0.127850  1
  S  S53  1  0.362316  0.206749  0.627850  1
  S  S54  1  0.372150  0.862316  0.293251  1
  S  S55  1  0.372150  0.637684  0.793251  1
  S  S56  1  0.423202  0.729465  0.526572  1
  S  S57  1  0.423202  0.770535  0.026572  1
  S  S58  1  0.473428  0.576798  0.270535  1
  S  S59  1  0.473428  0.923202  0.770535  1
  S  S60  1  0.526572  0.076798  0.229465  1
  S  S61  1  0.526572  0.423202  0.729465  1
  S  S62  1  0.576798  0.270535  0.473428  1
  S  S63  1  0.576798  0.229465  0.973428  1
  S  S64  1  0.627850  0.362316  0.206749  1
  S  S65  1  0.627850  0.137684  0.706749  1
  S  S66  1  0.637684  0.706749  0.872150  1
  S  S67  1  0.637684  0.793251  0.372150  1
  S  S68  1  0.706749  0.627850  0.137684  1
  S  S69  1  0.706749  0.872150  0.637684  1
  S  S70  1  0.729465  0.526572  0.423202  1
  S  S71  1  0.729465  0.973428  0.923202  1
  S  S72  1  0.770535  0.026572  0.423202  1
  S  S73  1  0.770535  0.473428  0.923202  1
  S  S74  1  0.793251  0.127850  0.137684  1
  S  S75  1  0.793251  0.372150  0.637684  1
  S  S76  1  0.862316  0.206749  0.872150  1
  S  S77  1  0.862316  0.293251  0.372150  1
  S  S78  1  0.872150  0.637684  0.706749  1
  S  S79  1  0.872150  0.862316  0.206749  1
  S  S80  1  0.923202  0.729465  0.973428  1
  S  S81  1  0.923202  0.770535  0.473428  1
  S  S82  1  0.973428  0.576798  0.229465  1
  S  S83  1  0.973428  0.923202  0.729465  1
