# generated using pymatgen
data_LiSb(TeO4)3
_symmetry_space_group_name_H-M   'P 1'
_cell_length_a   4.90685484
_cell_length_b   8.55636333
_cell_length_c   5.23705648
_cell_angle_alpha   90.00000000
_cell_angle_beta   90.56286506
_cell_angle_gamma   90.00000000
_symmetry_Int_Tables_number   1
_chemical_formula_structural   LiSb(TeO4)3
_chemical_formula_sum   'Li1 Sb1 Te3 O12'
_cell_volume   219.86633097
_cell_formula_units_Z   1
loop_
 _symmetry_equiv_pos_site_id
 _symmetry_equiv_pos_as_xyz
  1  'x, y, z'
loop_
 _atom_site_type_symbol
 _atom_site_label
 _atom_site_symmetry_multiplicity
 _atom_site_fract_x
 _atom_site_fract_y
 _atom_site_fract_z
 _atom_site_occupancy
  Li  Li0  1  0.000000  0.719156  0.000000  1
  Sb  Sb1  1  0.000000  0.103068  0.000000  1
  Te  Te2  1  0.500000  0.409931  0.000000  1
  Te  Te3  1  0.000000  0.924404  0.500000  1
  Te  Te4  1  0.500000  0.602808  0.500000  1
  O  O5  1  0.253392  0.261136  0.855894  1
  O  O6  1  0.286645  0.582248  0.817448  1
  O  O7  1  0.202641  0.920218  0.817606  1
  O  O8  1  0.712022  0.439433  0.686959  1
  O  O9  1  0.782782  0.080892  0.677376  1
  O  O10  1  0.758247  0.754478  0.642700  1
  O  O11  1  0.241753  0.754478  0.357300  1
  O  O12  1  0.217218  0.080892  0.322624  1
  O  O13  1  0.287978  0.439433  0.313041  1
  O  O14  1  0.797359  0.920218  0.182394  1
  O  O15  1  0.713355  0.582248  0.182552  1
  O  O16  1  0.746608  0.261136  0.144106  1
