# generated using pymatgen
data_Li4Mn3P4(HO8)2
_symmetry_space_group_name_H-M   'P 1'
_cell_length_a   8.66752481
_cell_length_b   9.43554950
_cell_length_c   9.38749736
_cell_angle_alpha   90.00000000
_cell_angle_beta   116.75423760
_cell_angle_gamma   90.00000000
_symmetry_Int_Tables_number   1
_chemical_formula_structural   Li4Mn3P4(HO8)2
_chemical_formula_sum   'Li8 Mn6 P8 H4 O32'
_cell_volume   685.54685890
_cell_formula_units_Z   2
loop_
 _symmetry_equiv_pos_site_id
 _symmetry_equiv_pos_as_xyz
  1  'x, y, z'
loop_
 _atom_site_type_symbol
 _atom_site_label
 _atom_site_symmetry_multiplicity
 _atom_site_fract_x
 _atom_site_fract_y
 _atom_site_fract_z
 _atom_site_occupancy
  Li  Li0  1  0.408713  0.355900  0.950625  1
  Li  Li1  1  0.292106  0.993821  0.706498  1
  Li  Li2  1  0.908713  0.144100  0.950625  1
  Li  Li3  1  0.792106  0.506179  0.706498  1
  Li  Li4  1  0.207894  0.493821  0.293502  1
  Li  Li5  1  0.091287  0.855900  0.049375  1
  Li  Li6  1  0.707894  0.006179  0.293502  1
  Li  Li7  1  0.591287  0.644100  0.049375  1
  Mn  Mn8  1  0.401009  0.635521  0.626008  1
  Mn  Mn9  1  0.098991  0.135521  0.373992  1
  Mn  Mn10  1  0.500000  0.000000  0.500000  1
  Mn  Mn11  1  0.901009  0.864479  0.626008  1
  Mn  Mn12  1  0.598991  0.364479  0.373992  1
  Mn  Mn13  1  0.000000  0.500000  0.500000  1
  P  P14  1  0.196381  0.678764  0.838100  1
  P  P15  1  0.696381  0.821236  0.838100  1
  P  P16  1  0.435363  0.314134  0.621761  1
  P  P17  1  0.064637  0.814134  0.378239  1
  P  P18  1  0.935363  0.185866  0.621761  1
  P  P19  1  0.564637  0.685866  0.378239  1
  P  P20  1  0.303619  0.178764  0.161900  1
  P  P21  1  0.803619  0.321236  0.161900  1
  H  H22  1  0.148142  0.199926  0.895891  1
  H  H23  1  0.648142  0.300074  0.895891  1
  H  H24  1  0.351858  0.699926  0.104109  1
  H  H25  1  0.851858  0.800074  0.104109  1
  O  O26  1  0.287068  0.190231  0.986369  1
  O  O27  1  0.983001  0.211672  0.800398  1
  O  O28  1  0.169403  0.832112  0.769201  1
  O  O29  1  0.037059  0.586567  0.736086  1
  O  O30  1  0.366811  0.611962  0.851833  1
  O  O31  1  0.787068  0.309769  0.986369  1
  O  O32  1  0.483001  0.288328  0.800398  1
  O  O33  1  0.097399  0.137336  0.607197  1
  O  O34  1  0.669403  0.667888  0.769201  1
  O  O35  1  0.537059  0.913433  0.736086  1
  O  O36  1  0.132596  0.674117  0.473221  1
  O  O37  1  0.866811  0.888038  0.851833  1
  O  O38  1  0.289320  0.426600  0.550994  1
  O  O39  1  0.210680  0.926600  0.449006  1
  O  O40  1  0.367404  0.174117  0.526779  1
  O  O41  1  0.597399  0.362664  0.607197  1
  O  O42  1  0.402601  0.637336  0.392803  1
  O  O43  1  0.632596  0.825883  0.473221  1
  O  O44  1  0.789320  0.073400  0.550994  1
  O  O45  1  0.710680  0.573400  0.449006  1
  O  O46  1  0.133189  0.111962  0.148167  1
  O  O47  1  0.867404  0.325883  0.526779  1
  O  O48  1  0.462941  0.086567  0.263914  1
  O  O49  1  0.330597  0.332112  0.230799  1
  O  O50  1  0.902601  0.862664  0.392803  1
  O  O51  1  0.516999  0.711672  0.199602  1
  O  O52  1  0.212932  0.690231  0.013631  1
  O  O53  1  0.633189  0.388038  0.148167  1
  O  O54  1  0.962941  0.413433  0.263914  1
  O  O55  1  0.830597  0.167888  0.230799  1
  O  O56  1  0.016999  0.788328  0.199602  1
  O  O57  1  0.712932  0.809769  0.013631  1
