# generated using pymatgen
data_TaSe2
_symmetry_space_group_name_H-M   'P 1'
_cell_length_a   12.59547704
_cell_length_b   12.35322588
_cell_length_c   3.47548959
_cell_angle_alpha   85.96963478
_cell_angle_beta   78.05350207
_cell_angle_gamma   15.97686316
_symmetry_Int_Tables_number   1
_chemical_formula_structural   TaSe2
_chemical_formula_sum   'Ta1 Se2'
_cell_volume   127.90926834
_cell_formula_units_Z   1
loop_
 _symmetry_equiv_pos_site_id
 _symmetry_equiv_pos_as_xyz
  1  'x, y, z'
loop_
 _atom_site_type_symbol
 _atom_site_label
 _atom_site_symmetry_multiplicity
 _atom_site_fract_x
 _atom_site_fract_y
 _atom_site_fract_z
 _atom_site_occupancy
  Ta  Ta0  1  0.918466  0.081534  0.918466  1
  Se  Se1  1  0.183186  0.679652  0.320348  1
  Se  Se2  1  0.320348  0.816814  0.183186  1
