# generated using pymatgen
data_NaZn4H18SClO16
_symmetry_space_group_name_H-M   'P 1'
_cell_length_a   8.47123574
_cell_length_b   8.47123574
_cell_length_c   13.18980684
_cell_angle_alpha   90.00000000
_cell_angle_beta   90.00000000
_cell_angle_gamma   120.00000000
_symmetry_Int_Tables_number   1
_chemical_formula_structural   NaZn4H18SClO16
_chemical_formula_sum   'Na2 Zn8 H36 S2 Cl2 O32'
_cell_volume   819.71447173
_cell_formula_units_Z   2
loop_
 _symmetry_equiv_pos_site_id
 _symmetry_equiv_pos_as_xyz
  1  'x, y, z'
loop_
 _atom_site_type_symbol
 _atom_site_label
 _atom_site_symmetry_multiplicity
 _atom_site_fract_x
 _atom_site_fract_y
 _atom_site_fract_z
 _atom_site_occupancy
  Na  Na0  1  0.333333  0.666667  0.091890  1
  Na  Na1  1  0.666667  0.333333  0.908110  1
  Zn  Zn2  1  0.127524  0.713627  0.492586  1
  Zn  Zn3  1  0.000000  0.000000  0.637539  1
  Zn  Zn4  1  0.000000  0.000000  0.362461  1
  Zn  Zn5  1  0.286373  0.413897  0.492586  1
  Zn  Zn6  1  0.586103  0.872476  0.492586  1
  Zn  Zn7  1  0.413897  0.127524  0.507414  1
  Zn  Zn8  1  0.713627  0.586103  0.507414  1
  Zn  Zn9  1  0.872476  0.286373  0.507414  1
  H  H10  1  0.008831  0.459660  0.215896  1
  H  H11  1  0.234025  0.909031  0.654805  1
  H  H12  1  0.241363  0.923984  0.204778  1
  H  H13  1  0.272511  0.951722  0.998240  1
  H  H14  1  0.241966  0.822423  0.907535  1
  H  H15  1  0.119388  0.478520  0.354780  1
  H  H16  1  0.048278  0.320789  0.998240  1
  H  H17  1  0.359132  0.880612  0.354780  1
  H  H18  1  0.076016  0.317378  0.204778  1
  H  H19  1  0.090969  0.324993  0.654805  1
  H  H20  1  0.177577  0.419543  0.907535  1
  H  H21  1  0.450828  0.991169  0.215896  1
  H  H22  1  0.317378  0.241363  0.795222  1
  H  H23  1  0.324993  0.234025  0.345195  1
  H  H24  1  0.320789  0.272511  0.001760  1
  H  H25  1  0.521480  0.640868  0.354780  1
  H  H26  1  0.580457  0.758034  0.907535  1
  H  H27  1  0.459660  0.450828  0.784104  1
  H  H28  1  0.540340  0.549172  0.215896  1
  H  H29  1  0.419543  0.241966  0.092465  1
  H  H30  1  0.478520  0.359132  0.645220  1
  H  H31  1  0.679211  0.727489  0.998240  1
  H  H32  1  0.675007  0.765975  0.654805  1
  H  H33  1  0.682622  0.758637  0.204778  1
  H  H34  1  0.549172  0.008831  0.784104  1
  H  H35  1  0.822423  0.580457  0.092465  1
  H  H36  1  0.909031  0.675007  0.345195  1
  H  H37  1  0.923984  0.682622  0.795222  1
  H  H38  1  0.640868  0.119388  0.645220  1
  H  H39  1  0.951722  0.679211  0.001760  1
  H  H40  1  0.880612  0.521480  0.645220  1
  H  H41  1  0.758034  0.177577  0.092465  1
  H  H42  1  0.727489  0.048278  0.001760  1
  H  H43  1  0.758637  0.076016  0.795222  1
  H  H44  1  0.765975  0.090969  0.345195  1
  H  H45  1  0.991169  0.540340  0.784104  1
  S  S46  1  0.333333  0.666667  0.723200  1
  S  S47  1  0.666667  0.333333  0.276800  1
  Cl  Cl48  1  0.000000  0.000000  0.811073  1
  Cl  Cl49  1  0.000000  0.000000  0.188927  1
  O  O50  1  0.186377  0.936943  0.592956  1
  O  O51  1  0.221399  0.821544  0.980781  1
  O  O52  1  0.105547  0.478983  0.429269  1
  O  O53  1  0.328306  0.880795  0.215455  1
  O  O54  1  0.119205  0.447510  0.215455  1
  O  O55  1  0.320418  0.826513  0.761272  1
  O  O56  1  0.373436  0.894453  0.429269  1
  O  O57  1  0.173487  0.493905  0.761272  1
  O  O58  1  0.063057  0.249435  0.592956  1
  O  O59  1  0.178456  0.399855  0.980781  1
  O  O60  1  0.333333  0.666667  0.609766  1
  O  O61  1  0.249435  0.186377  0.407044  1
  O  O62  1  0.506095  0.679582  0.761272  1
  O  O63  1  0.521017  0.626564  0.429269  1
  O  O64  1  0.600145  0.778601  0.980781  1
  O  O65  1  0.552490  0.671694  0.215455  1
  O  O66  1  0.447510  0.328306  0.784545  1
  O  O67  1  0.399855  0.221399  0.019219  1
  O  O68  1  0.478983  0.373436  0.570731  1
  O  O69  1  0.493905  0.320418  0.238728  1
  O  O70  1  0.750565  0.813623  0.592956  1
  O  O71  1  0.666667  0.333333  0.390234  1
  O  O72  1  0.821544  0.600145  0.019219  1
  O  O73  1  0.936943  0.750565  0.407044  1
  O  O74  1  0.826513  0.506095  0.238728  1
  O  O75  1  0.626564  0.105547  0.570731  1
  O  O76  1  0.679582  0.173487  0.238728  1
  O  O77  1  0.880795  0.552490  0.784545  1
  O  O78  1  0.671694  0.119205  0.784545  1
  O  O79  1  0.894453  0.521017  0.570731  1
  O  O80  1  0.778601  0.178456  0.019219  1
  O  O81  1  0.813623  0.063057  0.407044  1
