# generated using pymatgen
data_Li2AlCoO4
_symmetry_space_group_name_H-M   'P 1'
_cell_length_a   5.31354648
_cell_length_b   5.89323099
_cell_length_c   10.76638204
_cell_angle_alpha   90.00000000
_cell_angle_beta   107.04937677
_cell_angle_gamma   90.00000000
_symmetry_Int_Tables_number   1
_chemical_formula_structural   Li2AlCoO4
_chemical_formula_sum   'Li8 Al4 Co4 O16'
_cell_volume   322.32162795
_cell_formula_units_Z   4
loop_
 _symmetry_equiv_pos_site_id
 _symmetry_equiv_pos_as_xyz
  1  'x, y, z'
loop_
 _atom_site_type_symbol
 _atom_site_label
 _atom_site_symmetry_multiplicity
 _atom_site_fract_x
 _atom_site_fract_y
 _atom_site_fract_z
 _atom_site_occupancy
  Li  Li0  1  0.925924  0.334845  0.806086  1
  Li  Li1  1  0.925924  0.165155  0.306086  1
  Li  Li2  1  0.701741  0.158266  0.568264  1
  Li  Li3  1  0.701741  0.341734  0.068264  1
  Li  Li4  1  0.298259  0.658266  0.931736  1
  Li  Li5  1  0.298259  0.841734  0.431736  1
  Li  Li6  1  0.074076  0.834845  0.693914  1
  Li  Li7  1  0.074076  0.665155  0.193914  1
  Al  Al8  1  0.820738  0.833911  0.939086  1
  Al  Al9  1  0.820738  0.666089  0.439086  1
  Al  Al10  1  0.179262  0.333911  0.560914  1
  Al  Al11  1  0.179262  0.166089  0.060914  1
  Co  Co12  1  0.425771  0.175440  0.818522  1
  Co  Co13  1  0.574229  0.675440  0.681478  1
  Co  Co14  1  0.425771  0.324560  0.318522  1
  Co  Co15  1  0.574229  0.824560  0.181478  1
  O  O16  1  0.919395  0.670207  0.820319  1
  O  O17  1  0.919395  0.829793  0.320319  1
  O  O18  1  0.825814  0.144020  0.941196  1
  O  O19  1  0.825814  0.355980  0.441196  1
  O  O20  1  0.690182  0.813346  0.557549  1
  O  O21  1  0.531394  0.345276  0.684024  1
  O  O22  1  0.690182  0.686654  0.057549  1
  O  O23  1  0.531394  0.154724  0.184024  1
  O  O24  1  0.468606  0.845276  0.815976  1
  O  O25  1  0.309818  0.313346  0.942451  1
  O  O26  1  0.468606  0.654724  0.315976  1
  O  O27  1  0.309818  0.186654  0.442451  1
  O  O28  1  0.174186  0.644020  0.558804  1
  O  O29  1  0.174186  0.855980  0.058804  1
  O  O30  1  0.080605  0.170207  0.679681  1
  O  O31  1  0.080605  0.329793  0.179681  1
