# generated using pymatgen
data_Na8NiO6
_symmetry_space_group_name_H-M   'P 1'
_cell_length_a   6.32545942
_cell_length_b   6.32545942
_cell_length_c   12.81984491
_cell_angle_alpha   90.00000000
_cell_angle_beta   90.00000000
_cell_angle_gamma   120.00000000
_symmetry_Int_Tables_number   1
_chemical_formula_structural   Na8NiO6
_chemical_formula_sum   'Na16 Ni2 O12'
_cell_volume   444.21943078
_cell_formula_units_Z   2
loop_
 _symmetry_equiv_pos_site_id
 _symmetry_equiv_pos_as_xyz
  1  'x, y, z'
loop_
 _atom_site_type_symbol
 _atom_site_label
 _atom_site_symmetry_multiplicity
 _atom_site_fract_x
 _atom_site_fract_y
 _atom_site_fract_z
 _atom_site_occupancy
  Na  Na0  1  0.000000  0.709589  0.772060  1
  Na  Na1  1  0.000000  0.617843  0.119842  1
  Na  Na2  1  0.000000  0.382157  0.619842  1
  Na  Na3  1  0.000000  0.290411  0.272060  1
  Na  Na4  1  0.333333  0.666667  0.415509  1
  Na  Na5  1  0.333333  0.666667  0.915509  1
  Na  Na6  1  0.290411  0.290411  0.772060  1
  Na  Na7  1  0.382157  0.382157  0.119842  1
  Na  Na8  1  0.617843  0.617843  0.619842  1
  Na  Na9  1  0.290411  0.000000  0.272060  1
  Na  Na10  1  0.709589  0.709589  0.272060  1
  Na  Na11  1  0.382157  0.000000  0.619842  1
  Na  Na12  1  0.666667  0.333333  0.915509  1
  Na  Na13  1  0.666667  0.333333  0.415509  1
  Na  Na14  1  0.617843  0.000000  0.119842  1
  Na  Na15  1  0.709589  0.000000  0.772060  1
  Ni  Ni16  1  0.000000  0.000000  0.995378  1
  Ni  Ni17  1  0.000000  0.000000  0.495378  1
  O  O18  1  0.000000  0.719661  0.950902  1
  O  O19  1  0.000000  0.280339  0.450902  1
  O  O20  1  0.333333  0.666667  0.220781  1
  O  O21  1  0.000000  0.000000  0.148698  1
  O  O22  1  0.000000  0.000000  0.648698  1
  O  O23  1  0.333333  0.666667  0.720781  1
  O  O24  1  0.280339  0.280339  0.950902  1
  O  O25  1  0.280339  0.000000  0.450902  1
  O  O26  1  0.719661  0.719661  0.450902  1
  O  O27  1  0.666667  0.333333  0.720781  1
  O  O28  1  0.666667  0.333333  0.220781  1
  O  O29  1  0.719661  0.000000  0.950902  1
