# generated using pymatgen
data_Cs2Li14Tb3O14
_symmetry_space_group_name_H-M   'P 1'
_cell_length_a   8.67193803
_cell_length_b   8.67193803
_cell_length_c   8.67193803
_cell_angle_alpha   128.80283746
_cell_angle_beta   123.36062024
_cell_angle_gamma   79.83117427
_symmetry_Int_Tables_number   1
_chemical_formula_structural   Cs2Li14Tb3O14
_chemical_formula_sum   'Cs2 Li14 Tb3 O14'
_cell_volume   410.09290762
_cell_formula_units_Z   1
loop_
 _symmetry_equiv_pos_site_id
 _symmetry_equiv_pos_as_xyz
  1  'x, y, z'
loop_
 _atom_site_type_symbol
 _atom_site_label
 _atom_site_symmetry_multiplicity
 _atom_site_fract_x
 _atom_site_fract_y
 _atom_site_fract_z
 _atom_site_occupancy
  Cs  Cs0  1  0.500000  0.766389  0.266389  1
  Cs  Cs1  1  0.500000  0.233611  0.733611  1
  Li  Li2  1  0.712974  0.141131  0.120329  1
  Li  Li3  1  0.979198  0.858869  0.571843  1
  Li  Li4  1  0.020802  0.592645  0.879671  1
  Li  Li5  1  0.287026  0.407355  0.428157  1
  Li  Li6  1  0.020802  0.141131  0.428157  1
  Li  Li7  1  0.155270  0.500000  0.655270  1
  Li  Li8  1  0.844730  0.500000  0.344730  1
  Li  Li9  1  0.415756  0.767882  0.647875  1
  Li  Li10  1  0.584244  0.232118  0.352125  1
  Li  Li11  1  0.879993  0.232118  0.647875  1
  Li  Li12  1  0.120007  0.767882  0.352125  1
  Li  Li13  1  0.712974  0.592645  0.571843  1
  Li  Li14  1  0.287026  0.858869  0.879671  1
  Li  Li15  1  0.979198  0.407355  0.120329  1
  Tb  Tb16  1  0.000000  0.000000  0.000000  1
  Tb  Tb17  1  0.268374  0.268374  0.000000  1
  Tb  Tb18  1  0.731626  0.731626  0.000000  1
  O  O19  1  0.051651  0.868762  0.182890  1
  O  O20  1  0.407973  0.629582  0.778391  1
  O  O21  1  0.851190  0.629582  0.221609  1
  O  O22  1  0.592027  0.370418  0.221609  1
  O  O23  1  0.148810  0.370418  0.778391  1
  O  O24  1  0.753746  0.052262  0.298516  1
  O  O25  1  0.246254  0.544770  0.298516  1
  O  O26  1  0.246254  0.947738  0.701484  1
  O  O27  1  0.753746  0.455230  0.701484  1
  O  O28  1  0.000000  0.701998  0.701998  1
  O  O29  1  0.000000  0.298002  0.298002  1
  O  O30  1  0.685872  0.868762  0.817110  1
  O  O31  1  0.314128  0.131238  0.182890  1
  O  O32  1  0.948349  0.131238  0.817110  1
