# generated using pymatgen
data_DyB4Mo
_symmetry_space_group_name_H-M   'P 1'
_cell_length_a   3.62504015
_cell_length_b   6.02991375
_cell_length_c   11.65366822
_cell_angle_alpha   90.00000000
_cell_angle_beta   90.00000000
_cell_angle_gamma   90.00000000
_symmetry_Int_Tables_number   1
_chemical_formula_structural   DyB4Mo
_chemical_formula_sum   'Dy4 B16 Mo4'
_cell_volume   254.73379798
_cell_formula_units_Z   4
loop_
 _symmetry_equiv_pos_site_id
 _symmetry_equiv_pos_as_xyz
  1  'x, y, z'
loop_
 _atom_site_type_symbol
 _atom_site_label
 _atom_site_symmetry_multiplicity
 _atom_site_fract_x
 _atom_site_fract_y
 _atom_site_fract_z
 _atom_site_occupancy
  Dy  Dy0  1  0.000000  0.127029  0.149889  1
  Dy  Dy1  1  0.000000  0.872971  0.850111  1
  Dy  Dy2  1  0.000000  0.627029  0.350111  1
  Dy  Dy3  1  0.000000  0.372971  0.649889  1
  B  B4  1  0.500000  0.476691  0.193565  1
  B  B5  1  0.500000  0.523309  0.806435  1
  B  B6  1  0.500000  0.976691  0.306435  1
  B  B7  1  0.500000  0.023309  0.693565  1
  B  B8  1  0.500000  0.287309  0.313705  1
  B  B9  1  0.500000  0.712691  0.686295  1
  B  B10  1  0.500000  0.787309  0.186295  1
  B  B11  1  0.500000  0.212691  0.813705  1
  B  B12  1  0.500000  0.366858  0.468085  1
  B  B13  1  0.500000  0.633142  0.531915  1
  B  B14  1  0.500000  0.866858  0.031915  1
  B  B15  1  0.500000  0.133142  0.968085  1
  B  B16  1  0.500000  0.385911  0.047537  1
  B  B17  1  0.500000  0.614089  0.952463  1
  B  B18  1  0.500000  0.885911  0.452463  1
  B  B19  1  0.500000  0.114089  0.547537  1
  Mo  Mo20  1  0.000000  0.130049  0.416225  1
  Mo  Mo21  1  0.000000  0.869951  0.583775  1
  Mo  Mo22  1  0.000000  0.630049  0.083775  1
  Mo  Mo23  1  0.000000  0.369951  0.916225  1
