# generated using pymatgen
data_Li5Fe5(CoO6)2
_symmetry_space_group_name_H-M   'P 1'
_cell_length_a   5.17616862
_cell_length_b   5.17616862
_cell_length_c   9.87180429
_cell_angle_alpha   84.96378041
_cell_angle_beta   95.03621959
_cell_angle_gamma   60.38839012
_symmetry_Int_Tables_number   1
_chemical_formula_structural   Li5Fe5(CoO6)2
_chemical_formula_sum   'Li5 Fe5 Co2 O12'
_cell_volume   226.41842876
_cell_formula_units_Z   1
loop_
 _symmetry_equiv_pos_site_id
 _symmetry_equiv_pos_as_xyz
  1  'x, y, z'
loop_
 _atom_site_type_symbol
 _atom_site_label
 _atom_site_symmetry_multiplicity
 _atom_site_fract_x
 _atom_site_fract_y
 _atom_site_fract_z
 _atom_site_occupancy
  Li  Li0  1  0.832717  0.336994  0.742273  1
  Li  Li1  1  0.676891  0.156972  0.259248  1
  Li  Li2  1  0.336994  0.832717  0.257727  1
  Li  Li3  1  0.156972  0.676891  0.740752  1
  Li  Li4  1  0.080771  0.080771  0.500000  1
  Fe  Fe5  1  0.916365  0.916365  0.000000  1
  Fe  Fe6  1  0.002609  0.488105  0.264238  1
  Fe  Fe7  1  0.488105  0.002609  0.735762  1
  Fe  Fe8  1  0.579331  0.579331  0.000000  1
  Fe  Fe9  1  0.424586  0.424586  0.500000  1
  Co  Co10  1  0.751301  0.751301  0.500000  1
  Co  Co11  1  0.248836  0.248836  0.000000  1
  O  O12  1  0.054853  0.766102  0.374756  1
  O  O13  1  0.766102  0.054853  0.625244  1
  O  O14  1  0.847441  0.649043  0.878085  1
  O  O15  1  0.649043  0.847441  0.121915  1
  O  O16  1  0.712576  0.459288  0.375828  1
  O  O17  1  0.459288  0.712576  0.624172  1
  O  O18  1  0.553597  0.277331  0.884058  1
  O  O19  1  0.277331  0.553597  0.115942  1
  O  O20  1  0.371295  0.148020  0.373218  1
  O  O21  1  0.148020  0.371295  0.626782  1
  O  O22  1  0.218061  0.946917  0.880908  1
  O  O23  1  0.946917  0.218061  0.119092  1
