# generated using pymatgen
data_Na3UF8
_symmetry_space_group_name_H-M   'P 1'
_cell_length_a   6.72545746
_cell_length_b   6.72545746
_cell_length_c   6.72545746
_cell_angle_alpha   131.72298977
_cell_angle_beta   131.72298977
_cell_angle_gamma   70.66688785
_symmetry_Int_Tables_number   1
_chemical_formula_structural   Na3UF8
_chemical_formula_sum   'Na3 U1 F8'
_cell_volume   166.01089255
_cell_formula_units_Z   1
loop_
 _symmetry_equiv_pos_site_id
 _symmetry_equiv_pos_as_xyz
  1  'x, y, z'
loop_
 _atom_site_type_symbol
 _atom_site_label
 _atom_site_symmetry_multiplicity
 _atom_site_fract_x
 _atom_site_fract_y
 _atom_site_fract_z
 _atom_site_occupancy
  Na  Na0  1  0.500000  0.500000  0.000000  1
  Na  Na1  1  0.250000  0.750000  0.500000  1
  Na  Na2  1  0.750000  0.250000  0.500000  1
  U  U3  1  0.000000  0.000000  0.000000  1
  F  F4  1  0.348656  0.348656  0.464619  1
  F  F5  1  0.348656  0.884038  1.000000  1
  F  F6  1  0.884038  0.348656  0.000000  1
  F  F7  1  0.884038  0.884038  0.535381  1
  F  F8  1  0.115962  0.115962  0.464619  1
  F  F9  1  0.115962  0.651344  0.000000  1
  F  F10  1  0.651344  0.115962  1.000000  1
  F  F11  1  0.651344  0.651344  0.535381  1
