# generated using pymatgen
data_LiCoOF2
_symmetry_space_group_name_H-M   'P 1'
_cell_length_a   5.08302417
_cell_length_b   5.14838388
_cell_length_c   9.81390879
_cell_angle_alpha   89.68088718
_cell_angle_beta   104.62470920
_cell_angle_gamma   119.40677533
_symmetry_Int_Tables_number   1
_chemical_formula_structural   LiCoOF2
_chemical_formula_sum   'Li4 Co4 O4 F8'
_cell_volume   214.33823503
_cell_formula_units_Z   4
loop_
 _symmetry_equiv_pos_site_id
 _symmetry_equiv_pos_as_xyz
  1  'x, y, z'
loop_
 _atom_site_type_symbol
 _atom_site_label
 _atom_site_symmetry_multiplicity
 _atom_site_fract_x
 _atom_site_fract_y
 _atom_site_fract_z
 _atom_site_occupancy
  Li  Li0  1  0.867918  0.196025  0.040439  1
  Li  Li1  1  0.132082  0.803975  0.959561  1
  Li  Li2  1  0.848685  0.674987  0.540946  1
  Li  Li3  1  0.151315  0.325013  0.459054  1
  Co  Co4  1  0.340249  0.886392  0.272651  1
  Co  Co5  1  0.659751  0.113608  0.727349  1
  Co  Co6  1  0.335581  0.428684  0.772502  1
  Co  Co7  1  0.664419  0.571316  0.227498  1
  O  O8  1  0.457294  0.641791  0.359781  1
  O  O9  1  0.930071  0.584592  0.135248  1
  O  O10  1  0.069929  0.415408  0.864752  1
  O  O11  1  0.542706  0.358209  0.640219  1
  F  F12  1  0.444395  0.128017  0.877403  1
  F  F13  1  0.926050  0.061278  0.624691  1
  F  F14  1  0.264590  0.187181  0.135645  1
  F  F15  1  0.735410  0.812819  0.864355  1
  F  F16  1  0.073950  0.938722  0.375309  1
  F  F17  1  0.266940  0.699967  0.628667  1
  F  F18  1  0.555605  0.871983  0.122597  1
  F  F19  1  0.733060  0.300033  0.371333  1
