# generated using pymatgen
data_Na3(CoO2)2
_symmetry_space_group_name_H-M   'P 1'
_cell_length_a   4.96639763
_cell_length_b   4.96639763
_cell_length_c   10.53434944
_cell_angle_alpha   90.00000000
_cell_angle_beta   90.00000000
_cell_angle_gamma   109.32943425
_symmetry_Int_Tables_number   1
_chemical_formula_structural   Na3(CoO2)2
_chemical_formula_sum   'Na6 Co4 O8'
_cell_volume   245.18444342
_cell_formula_units_Z   2
loop_
 _symmetry_equiv_pos_site_id
 _symmetry_equiv_pos_as_xyz
  1  'x, y, z'
loop_
 _atom_site_type_symbol
 _atom_site_label
 _atom_site_symmetry_multiplicity
 _atom_site_fract_x
 _atom_site_fract_y
 _atom_site_fract_z
 _atom_site_occupancy
  Na  Na0  1  0.646142  0.353858  0.061548  1
  Na  Na1  1  0.646142  0.353858  0.438452  1
  Na  Na2  1  0.353858  0.646142  0.561548  1
  Na  Na3  1  0.316271  0.683729  0.250000  1
  Na  Na4  1  0.683729  0.316271  0.750000  1
  Na  Na5  1  0.353858  0.646142  0.938452  1
  Co  Co6  1  0.000000  0.000000  0.000000  1
  Co  Co7  1  0.932238  0.067762  0.250000  1
  Co  Co8  1  0.000000  0.000000  0.500000  1
  Co  Co9  1  0.067762  0.932238  0.750000  1
  O  O10  1  0.140057  0.302526  0.114133  1
  O  O11  1  0.140057  0.302526  0.385867  1
  O  O12  1  0.302526  0.140057  0.885867  1
  O  O13  1  0.302526  0.140057  0.614133  1
  O  O14  1  0.697474  0.859943  0.385867  1
  O  O15  1  0.697474  0.859943  0.114133  1
  O  O16  1  0.859943  0.697474  0.614133  1
  O  O17  1  0.859943  0.697474  0.885867  1
