# generated using pymatgen
data_V2O3
_symmetry_space_group_name_H-M   'P 1'
_cell_length_a   5.13475632
_cell_length_b   5.47013352
_cell_length_c   15.06834135
_cell_angle_alpha   90.00000000
_cell_angle_beta   90.00000000
_cell_angle_gamma   90.00000000
_symmetry_Int_Tables_number   1
_chemical_formula_structural   V2O3
_chemical_formula_sum   'V16 O24'
_cell_volume   423.23659849
_cell_formula_units_Z   8
loop_
 _symmetry_equiv_pos_site_id
 _symmetry_equiv_pos_as_xyz
  1  'x, y, z'
loop_
 _atom_site_type_symbol
 _atom_site_label
 _atom_site_symmetry_multiplicity
 _atom_site_fract_x
 _atom_site_fract_y
 _atom_site_fract_z
 _atom_site_occupancy
  V  V0  1  0.000648  0.183860  0.073436  1
  V  V1  1  0.997215  0.749214  0.179195  1
  V  V2  1  0.000648  0.316140  0.573436  1
  V  V3  1  0.997215  0.750786  0.679195  1
  V  V4  1  0.502785  0.249214  0.179195  1
  V  V5  1  0.502785  0.250786  0.679195  1
  V  V6  1  0.499352  0.816140  0.573436  1
  V  V7  1  0.499352  0.683860  0.073436  1
  V  V8  1  0.500648  0.183860  0.426564  1
  V  V9  1  0.500648  0.316140  0.926564  1
  V  V10  1  0.497215  0.749214  0.320805  1
  V  V11  1  0.497215  0.750786  0.820805  1
  V  V12  1  0.999352  0.683860  0.426564  1
  V  V13  1  0.002785  0.249214  0.320805  1
  V  V14  1  0.002785  0.250786  0.820805  1
  V  V15  1  0.999352  0.816140  0.926564  1
  O  O16  1  0.142013  0.115951  0.202530  1
  O  O17  1  0.142013  0.384049  0.702530  1
  O  O18  1  0.150127  0.836290  0.050877  1
  O  O19  1  0.150127  0.663710  0.550877  1
  O  O20  1  0.199218  0.966907  0.375364  1
  O  O21  1  0.199218  0.533093  0.875364  1
  O  O22  1  0.300782  0.466907  0.375364  1
  O  O23  1  0.300782  0.033093  0.875364  1
  O  O24  1  0.349873  0.163710  0.550877  1
  O  O25  1  0.349873  0.336290  0.050877  1
  O  O26  1  0.357987  0.615951  0.202530  1
  O  O27  1  0.357987  0.884049  0.702530  1
  O  O28  1  0.642013  0.115951  0.297470  1
  O  O29  1  0.642013  0.384049  0.797470  1
  O  O30  1  0.650127  0.836290  0.449123  1
  O  O31  1  0.650127  0.663710  0.949123  1
  O  O32  1  0.699218  0.533093  0.624636  1
  O  O33  1  0.699218  0.966907  0.124636  1
  O  O34  1  0.800782  0.466907  0.124636  1
  O  O35  1  0.800782  0.033093  0.624636  1
  O  O36  1  0.849873  0.336290  0.449123  1
  O  O37  1  0.849873  0.163710  0.949123  1
  O  O38  1  0.857987  0.884049  0.797470  1
  O  O39  1  0.857987  0.615951  0.297470  1
