# generated using pymatgen
data_Li2V2CrO6
_symmetry_space_group_name_H-M   'P 1'
_cell_length_a   7.86487810
_cell_length_b   7.86487810
_cell_length_c   6.06224174
_cell_angle_alpha   78.38560193
_cell_angle_beta   101.61439807
_cell_angle_gamma   110.78073552
_symmetry_Int_Tables_number   1
_chemical_formula_structural   Li2V2CrO6
_chemical_formula_sum   'Li6 V6 Cr3 O18'
_cell_volume   339.94258109
_cell_formula_units_Z   3
loop_
 _symmetry_equiv_pos_site_id
 _symmetry_equiv_pos_as_xyz
  1  'x, y, z'
loop_
 _atom_site_type_symbol
 _atom_site_label
 _atom_site_symmetry_multiplicity
 _atom_site_fract_x
 _atom_site_fract_y
 _atom_site_fract_z
 _atom_site_occupancy
  Li  Li0  1  0.497215  0.166818  0.838686  1
  Li  Li1  1  0.833182  0.502785  0.838686  1
  Li  Li2  1  0.170940  0.170940  0.500000  1
  Li  Li3  1  0.829060  0.829060  0.500000  1
  Li  Li4  1  0.166818  0.497215  0.161314  1
  Li  Li5  1  0.502785  0.833182  0.161314  1
  V  V6  1  0.165977  0.834023  0.328516  1
  V  V7  1  0.834023  0.165977  0.671484  1
  V  V8  1  0.506203  0.170743  0.335659  1
  V  V9  1  0.829257  0.493797  0.335659  1
  V  V10  1  0.170743  0.506203  0.664341  1
  V  V11  1  0.493797  0.829257  0.664341  1
  Cr  Cr12  1  0.166435  0.166435  0.000000  1
  Cr  Cr13  1  0.500000  0.500000  0.000000  1
  Cr  Cr14  1  0.833565  0.833565  0.000000  1
  O  O15  1  0.984408  0.015592  0.758245  1
  O  O16  1  0.660079  0.000381  0.445755  1
  O  O17  1  0.999619  0.339921  0.445755  1
  O  O18  1  0.015592  0.984408  0.241755  1
  O  O19  1  0.667098  0.991836  0.889814  1
  O  O20  1  0.008164  0.332902  0.889814  1
  O  O21  1  0.339921  0.999619  0.554245  1
  O  O22  1  0.681822  0.318178  0.587632  1
  O  O23  1  0.000381  0.660079  0.554245  1
  O  O24  1  0.332902  0.008164  0.110186  1
  O  O25  1  0.658599  0.341401  0.102892  1
  O  O26  1  0.991836  0.667098  0.110186  1
  O  O27  1  0.322322  0.334855  0.773909  1
  O  O28  1  0.665145  0.677678  0.773909  1
  O  O29  1  0.318178  0.681822  0.412368  1
  O  O30  1  0.334855  0.322322  0.226091  1
  O  O31  1  0.677678  0.665145  0.226091  1
  O  O32  1  0.341401  0.658599  0.897108  1
