# generated using pymatgen
data_Li4FeOF4
_symmetry_space_group_name_H-M   'P 1'
_cell_length_a   5.20995077
_cell_length_b   5.20995077
_cell_length_c   5.20995077
_cell_angle_alpha   98.48924548
_cell_angle_beta   98.48924548
_cell_angle_gamma   134.80954937
_symmetry_Int_Tables_number   1
_chemical_formula_structural   Li4FeOF4
_chemical_formula_sum   'Li4 Fe1 O1 F4'
_cell_volume   92.62758262
_cell_formula_units_Z   1
loop_
 _symmetry_equiv_pos_site_id
 _symmetry_equiv_pos_as_xyz
  1  'x, y, z'
loop_
 _atom_site_type_symbol
 _atom_site_label
 _atom_site_symmetry_multiplicity
 _atom_site_fract_x
 _atom_site_fract_y
 _atom_site_fract_z
 _atom_site_occupancy
  Li  Li0  1  0.590738  0.207952  0.798689  1
  Li  Li1  1  0.792048  0.590738  0.382786  1
  Li  Li2  1  0.207952  0.409262  0.617214  1
  Li  Li3  1  0.409262  0.792048  0.201311  1
  Fe  Fe4  1  0.000000  0.000000  0.000000  1
  O  O5  1  0.500000  0.500000  0.000000  1
  F  F6  1  0.102887  0.690843  0.793730  1
  F  F7  1  0.309157  0.102887  0.412044  1
  F  F8  1  0.690843  0.897113  0.587956  1
  F  F9  1  0.897113  0.309157  0.206270  1
