# generated using pymatgen
data_Li5Fe8(BO3)8
_symmetry_space_group_name_H-M   'P 1'
_cell_length_a   5.27140320
_cell_length_b   9.07381079
_cell_length_c   11.36981869
_cell_angle_alpha   113.36190319
_cell_angle_beta   102.28491085
_cell_angle_gamma   89.58586058
_symmetry_Int_Tables_number   1
_chemical_formula_structural   Li5Fe8(BO3)8
_chemical_formula_sum   'Li5 Fe8 B8 O24'
_cell_volume   486.01375920
_cell_formula_units_Z   1
loop_
 _symmetry_equiv_pos_site_id
 _symmetry_equiv_pos_as_xyz
  1  'x, y, z'
loop_
 _atom_site_type_symbol
 _atom_site_label
 _atom_site_symmetry_multiplicity
 _atom_site_fract_x
 _atom_site_fract_y
 _atom_site_fract_z
 _atom_site_occupancy
  Li  Li0  1  0.647132  0.305561  0.586617  1
  Li  Li1  1  0.390423  0.045820  0.092280  1
  Li  Li2  1  0.082568  0.411741  0.839085  1
  Li  Li3  1  0.312098  0.678149  0.332251  1
  Li  Li4  1  0.581362  0.905598  0.840455  1
  Fe  Fe5  1  0.604054  0.592623  0.874871  1
  Fe  Fe6  1  0.898677  0.891910  0.124902  1
  Fe  Fe7  1  0.159651  0.482932  0.620148  1
  Fe  Fe8  1  0.340763  0.035535  0.370881  1
  Fe  Fe9  1  0.652819  0.973754  0.618947  1
  Fe  Fe10  1  0.841982  0.508542  0.365639  1
  Fe  Fe11  1  0.093991  0.092315  0.868373  1
  Fe  Fe12  1  0.398535  0.399859  0.115135  1
  B  B13  1  0.360694  0.364381  0.374846  1
  B  B14  1  0.109012  0.768589  0.878457  1
  B  B15  1  0.843669  0.842624  0.368978  1
  B  B16  1  0.595959  0.261797  0.864629  1
  B  B17  1  0.143938  0.146267  0.624020  1
  B  B18  1  0.396575  0.740979  0.125638  1
  B  B19  1  0.656004  0.641299  0.621597  1
  B  B20  1  0.903883  0.220815  0.124777  1
  O  O21  1  0.870522  0.790712  0.917780  1
  O  O22  1  0.552955  0.533755  0.662322  1
  O  O23  1  0.766820  0.084161  0.115639  1
  O  O24  1  0.498243  0.241632  0.387985  1
  O  O25  1  0.122691  0.388381  0.409385  1
  O  O26  1  0.198456  0.616769  0.835159  1
  O  O27  1  0.740726  0.384572  0.863323  1
  O  O28  1  0.948609  0.945275  0.323512  1
  O  O29  1  0.281686  0.890274  0.156472  1
  O  O30  1  0.385613  0.118568  0.587322  1
  O  O31  1  0.028199  0.284955  0.635810  1
  O  O32  1  0.621824  0.730068  0.079106  1
  O  O33  1  0.358683  0.285294  0.903351  1
  O  O34  1  0.612543  0.876615  0.416737  1
  O  O35  1  0.685974  0.105380  0.824124  1
  O  O36  1  0.023901  0.030953  0.652176  1
  O  O37  1  0.290208  0.618538  0.142597  1
  O  O38  1  0.793461  0.366433  0.169530  1
  O  O39  1  0.860023  0.599122  0.560000  1
  O  O40  1  0.558679  0.789969  0.646620  1
  O  O41  1  0.964962  0.707365  0.365422  1
  O  O42  1  0.254991  0.901165  0.888372  1
  O  O43  1  0.457911  0.475873  0.333889  1
  O  O44  1  0.137986  0.206952  0.084884  1
