# generated using pymatgen
data_Mn6OF11
_symmetry_space_group_name_H-M   'P 1'
_cell_length_a   10.97088174
_cell_length_b   10.97088174
_cell_length_c   3.29100637
_cell_angle_alpha   90.00000000
_cell_angle_beta   90.00000000
_cell_angle_gamma   142.40898178
_symmetry_Int_Tables_number   1
_chemical_formula_structural   Mn6OF11
_chemical_formula_sum   'Mn6 O1 F11'
_cell_volume   241.63316624
_cell_formula_units_Z   1
loop_
 _symmetry_equiv_pos_site_id
 _symmetry_equiv_pos_as_xyz
  1  'x, y, z'
loop_
 _atom_site_type_symbol
 _atom_site_label
 _atom_site_symmetry_multiplicity
 _atom_site_fract_x
 _atom_site_fract_y
 _atom_site_fract_z
 _atom_site_occupancy
  Mn  Mn0  1  0.001059  0.998941  0.000000  1
  Mn  Mn1  1  0.171065  0.828935  0.500000  1
  Mn  Mn2  1  0.493551  0.506449  0.500000  1
  Mn  Mn3  1  0.343233  0.656767  0.000000  1
  Mn  Mn4  1  0.662457  0.337543  0.000000  1
  Mn  Mn5  1  0.831880  0.168120  0.500000  1
  O  O6  1  0.400571  0.599429  0.500000  1
  F  F7  1  0.067294  0.932706  0.500000  1
  F  F8  1  0.694239  0.693918  0.000000  1
  F  F9  1  0.971121  0.637061  0.000000  1
  F  F10  1  0.306082  0.305761  0.000000  1
  F  F11  1  0.637365  0.975073  1.000000  1
  F  F12  1  0.274479  0.725521  0.500000  1
  F  F13  1  0.594158  0.405842  0.500000  1
  F  F14  1  0.727755  0.272245  0.500000  1
  F  F15  1  0.024927  0.362635  0.000000  1
  F  F16  1  0.362939  0.028879  0.000000  1
  F  F17  1  0.935435  0.064565  0.500000  1
