# generated using pymatgen
data_Ce(BIr)2
_symmetry_space_group_name_H-M   'P 1'
_cell_length_a   7.10407135
_cell_length_b   6.12979535
_cell_length_c   5.58036127
_cell_angle_alpha   74.53091289
_cell_angle_beta   56.26337214
_cell_angle_gamma   49.20571497
_symmetry_Int_Tables_number   1
_chemical_formula_structural   Ce(BIr)2
_chemical_formula_sum   'Ce2 B4 Ir4'
_cell_volume   151.19486742
_cell_formula_units_Z   2
loop_
 _symmetry_equiv_pos_site_id
 _symmetry_equiv_pos_as_xyz
  1  'x, y, z'
loop_
 _atom_site_type_symbol
 _atom_site_label
 _atom_site_symmetry_multiplicity
 _atom_site_fract_x
 _atom_site_fract_y
 _atom_site_fract_z
 _atom_site_occupancy
  Ce  Ce0  1  0.750000  0.750000  0.750000  1
  Ce  Ce1  1  0.500000  0.500000  0.500000  1
  B  B2  1  0.069705  0.430295  0.069705  1
  B  B3  1  0.819705  0.180295  0.819705  1
  B  B4  1  0.430295  0.069705  0.430295  1
  B  B5  1  0.180295  0.819705  0.180295  1
  Ir  Ir6  1  0.379668  0.379668  0.120332  1
  Ir  Ir7  1  0.129668  0.129668  0.870332  1
  Ir  Ir8  1  0.870332  0.870332  0.129668  1
  Ir  Ir9  1  0.120332  0.120332  0.379668  1
