# generated using pymatgen
data_LiTiMnO4
_symmetry_space_group_name_H-M   'P 1'
_cell_length_a   5.96133637
_cell_length_b   5.96133637
_cell_length_c   5.96133637
_cell_angle_alpha   118.81071214
_cell_angle_beta   117.93385760
_cell_angle_gamma   92.84478831
_symmetry_Int_Tables_number   1
_chemical_formula_structural   LiTiMnO4
_chemical_formula_sum   'Li2 Ti2 Mn2 O8'
_cell_volume   153.27200400
_cell_formula_units_Z   2
loop_
 _symmetry_equiv_pos_site_id
 _symmetry_equiv_pos_as_xyz
  1  'x, y, z'
loop_
 _atom_site_type_symbol
 _atom_site_label
 _atom_site_symmetry_multiplicity
 _atom_site_fract_x
 _atom_site_fract_y
 _atom_site_fract_z
 _atom_site_occupancy
  Li  Li0  1  0.875290  0.125290  0.250000  1
  Li  Li1  1  0.124710  0.874710  0.750000  1
  Ti  Ti2  1  0.500000  0.500000  0.000000  1
  Ti  Ti3  1  0.500000  0.000000  0.500000  1
  Mn  Mn4  1  0.000000  0.500000  1.000000  1
  Mn  Mn5  1  0.500000  0.500000  0.500000  1
  O  O6  1  0.732561  0.262649  0.969912  1
  O  O7  1  0.733730  0.717527  0.983797  1
  O  O8  1  0.733730  0.249932  0.516203  1
  O  O9  1  0.292737  0.262649  0.530088  1
  O  O10  1  0.707263  0.737351  0.469912  1
  O  O11  1  0.266270  0.282473  0.016203  1
  O  O12  1  0.266270  0.750068  0.483797  1
  O  O13  1  0.267439  0.737351  0.030088  1
