# generated using pymatgen
data_VO2F
_symmetry_space_group_name_H-M   'P 1'
_cell_length_a   9.14648724
_cell_length_b   9.14648724
_cell_length_c   7.36931805
_cell_angle_alpha   66.90959887
_cell_angle_beta   113.09040113
_cell_angle_gamma   146.78586852
_symmetry_Int_Tables_number   1
_chemical_formula_structural   VO2F
_chemical_formula_sum   'V6 O12 F6'
_cell_volume   308.12639044
_cell_formula_units_Z   6
loop_
 _symmetry_equiv_pos_site_id
 _symmetry_equiv_pos_as_xyz
  1  'x, y, z'
loop_
 _atom_site_type_symbol
 _atom_site_label
 _atom_site_symmetry_multiplicity
 _atom_site_fract_x
 _atom_site_fract_y
 _atom_site_fract_z
 _atom_site_occupancy
  V  V0  1  0.051542  0.036364  0.484391  1
  V  V1  1  0.963636  0.948458  0.984391  1
  V  V2  1  0.721498  0.375335  0.654349  1
  V  V3  1  0.624665  0.278502  0.154349  1
  V  V4  1  0.336588  0.656329  0.813137  1
  V  V5  1  0.343671  0.663412  0.313137  1
  O  O6  1  0.936746  0.943408  0.257001  1
  O  O7  1  0.863662  0.678992  0.061189  1
  O  O8  1  0.751529  0.414305  0.425964  1
  O  O9  1  0.585695  0.248471  0.925964  1
  O  O10  1  0.626309  0.774738  0.894446  1
  O  O11  1  0.445596  0.972015  0.282225  1
  O  O12  1  0.321008  0.136338  0.561189  1
  O  O13  1  0.056592  0.063254  0.757001  1
  O  O14  1  0.409123  0.749958  0.086860  1
  O  O15  1  0.250042  0.590877  0.586860  1
  O  O16  1  0.225262  0.373691  0.394446  1
  O  O17  1  0.027985  0.554404  0.782225  1
  F  F18  1  0.789231  0.648980  0.616204  1
  F  F19  1  0.970624  0.447182  0.225234  1
  F  F20  1  0.552818  0.029376  0.725234  1
  F  F21  1  0.689001  0.891899  0.448732  1
  F  F22  1  0.351020  0.210769  0.116204  1
  F  F23  1  0.108101  0.310999  0.948732  1
