# generated using pymatgen
data_Li4V3Cr3O12
_symmetry_space_group_name_H-M   'P 1'
_cell_length_a   5.17530648
_cell_length_b   6.00323645
_cell_length_c   7.87745498
_cell_angle_alpha   78.17311601
_cell_angle_beta   77.91699348
_cell_angle_gamma   72.89179050
_symmetry_Int_Tables_number   1
_chemical_formula_structural   Li4V3Cr3O12
_chemical_formula_sum   'Li4 V3 Cr3 O12'
_cell_volume   226.02194024
_cell_formula_units_Z   1
loop_
 _symmetry_equiv_pos_site_id
 _symmetry_equiv_pos_as_xyz
  1  'x, y, z'
loop_
 _atom_site_type_symbol
 _atom_site_label
 _atom_site_symmetry_multiplicity
 _atom_site_fract_x
 _atom_site_fract_y
 _atom_site_fract_z
 _atom_site_occupancy
  Li  Li0  1  0.495882  0.833998  0.164952  1
  Li  Li1  1  0.504118  0.166002  0.835048  1
  Li  Li2  1  0.001817  0.666011  0.334920  1
  Li  Li3  1  0.998183  0.333989  0.665080  1
  V  V4  1  0.001420  0.830027  0.673875  1
  V  V5  1  0.000000  0.500000  0.000000  1
  V  V6  1  0.998580  0.169973  0.326125  1
  Cr  Cr7  1  0.495886  0.669186  0.832812  1
  Cr  Cr8  1  0.504114  0.330814  0.167188  1
  Cr  Cr9  1  0.500000  0.000000  0.500000  1
  O  O10  1  0.749860  0.817038  0.903130  1
  O  O11  1  0.258744  0.984100  0.732446  1
  O  O12  1  0.751857  0.690386  0.597501  1
  O  O13  1  0.734923  0.361756  0.924631  1
  O  O14  1  0.225072  0.868808  0.421686  1
  O  O15  1  0.229371  0.527106  0.754725  1
  O  O16  1  0.770629  0.472894  0.245275  1
  O  O17  1  0.774928  0.131192  0.578314  1
  O  O18  1  0.265077  0.638244  0.075369  1
  O  O19  1  0.248143  0.309614  0.402499  1
  O  O20  1  0.741256  0.015900  0.267554  1
  O  O21  1  0.250140  0.182962  0.096870  1
