# generated using pymatgen
data_LiMn(PO3)4
_symmetry_space_group_name_H-M   'P 1'
_cell_length_a   8.97477104
_cell_length_b   8.97477104
_cell_length_c   10.02987293
_cell_angle_alpha   56.24166437
_cell_angle_beta   123.75833563
_cell_angle_gamma   129.88899697
_symmetry_Int_Tables_number   1
_chemical_formula_structural   LiMn(PO3)4
_chemical_formula_sum   'Li2 Mn2 P8 O24'
_cell_volume   489.54928496
_cell_formula_units_Z   2
loop_
 _symmetry_equiv_pos_site_id
 _symmetry_equiv_pos_as_xyz
  1  'x, y, z'
loop_
 _atom_site_type_symbol
 _atom_site_label
 _atom_site_symmetry_multiplicity
 _atom_site_fract_x
 _atom_site_fract_y
 _atom_site_fract_z
 _atom_site_occupancy
  Li  Li0  1  0.830023  0.830023  0.750000  1
  Li  Li1  1  0.169977  0.169977  0.250000  1
  Mn  Mn2  1  0.288754  0.288754  0.750000  1
  Mn  Mn3  1  0.711246  0.711246  0.250000  1
  P  P4  1  0.688007  0.960813  0.888035  1
  P  P5  1  0.283072  0.567889  0.847699  1
  P  P6  1  0.567889  0.283072  0.652301  1
  P  P7  1  0.960813  0.688007  0.611965  1
  P  P8  1  0.039187  0.311993  0.388035  1
  P  P9  1  0.432111  0.716928  0.347699  1
  P  P10  1  0.716928  0.432111  0.152301  1
  P  P11  1  0.311993  0.039187  0.111965  1
  O  O12  1  0.170232  0.408878  0.971430  1
  O  O13  1  0.465180  0.769277  0.907763  1
  O  O14  1  0.750784  0.978068  0.770197  1
  O  O15  1  0.660778  0.149044  0.834219  1
  O  O16  1  0.174378  0.059506  0.925180  1
  O  O17  1  0.149044  0.660778  0.665781  1
  O  O18  1  0.978068  0.750784  0.729803  1
  O  O19  1  0.520311  0.380140  0.700746  1
  O  O20  1  0.380140  0.520311  0.799254  1
  O  O21  1  0.769277  0.465180  0.592237  1
  O  O22  1  0.408878  0.170232  0.528570  1
  O  O23  1  0.059506  0.174378  0.574820  1
  O  O24  1  0.940494  0.825622  0.425180  1
  O  O25  1  0.591122  0.829768  0.471430  1
  O  O26  1  0.230723  0.534820  0.407763  1
  O  O27  1  0.619860  0.479689  0.200746  1
  O  O28  1  0.479689  0.619860  0.299254  1
  O  O29  1  0.021932  0.249216  0.270197  1
  O  O30  1  0.850956  0.339222  0.334219  1
  O  O31  1  0.825622  0.940494  0.074820  1
  O  O32  1  0.339222  0.850956  0.165781  1
  O  O33  1  0.249216  0.021932  0.229803  1
  O  O34  1  0.534820  0.230723  0.092237  1
  O  O35  1  0.829768  0.591122  0.028570  1
