# generated using pymatgen
data_LiV2OF5
_symmetry_space_group_name_H-M   'P 1'
_cell_length_a   5.52917106
_cell_length_b   7.66805587
_cell_length_c   8.89063537
_cell_angle_alpha   113.70574292
_cell_angle_beta   105.38950452
_cell_angle_gamma   94.66738931
_symmetry_Int_Tables_number   1
_chemical_formula_structural   LiV2OF5
_chemical_formula_sum   'Li3 V6 O3 F15'
_cell_volume   325.12538778
_cell_formula_units_Z   3
loop_
 _symmetry_equiv_pos_site_id
 _symmetry_equiv_pos_as_xyz
  1  'x, y, z'
loop_
 _atom_site_type_symbol
 _atom_site_label
 _atom_site_symmetry_multiplicity
 _atom_site_fract_x
 _atom_site_fract_y
 _atom_site_fract_z
 _atom_site_occupancy
  Li  Li0  1  0.425491  0.275578  0.994649  1
  Li  Li1  1  0.902935  0.536275  0.651999  1
  Li  Li2  1  0.437110  0.790580  0.016593  1
  V  V3  1  0.006206  0.997708  0.990868  1
  V  V4  1  0.355455  0.333014  0.657296  1
  V  V5  1  0.324896  0.851234  0.674598  1
  V  V6  1  0.665492  0.174149  0.344904  1
  V  V7  1  0.644927  0.669242  0.326229  1
  V  V8  1  0.018786  0.505370  0.014455  1
  O  O9  1  0.228541  0.979983  0.863539  1
  O  O10  1  0.570659  0.318206  0.530479  1
  O  O11  1  0.370228  0.617262  0.126441  1
  F  F12  1  0.104744  0.343149  0.797296  1
  F  F13  1  0.630203  0.372846  0.883018  1
  F  F14  1  0.283157  0.045443  0.582623  1
  F  F15  1  0.950957  0.694781  0.902773  1
  F  F16  1  0.367118  0.631111  0.759940  1
  F  F17  1  0.033874  0.318003  0.474445  1
  F  F18  1  0.695939  0.965394  0.795674  1
  F  F19  1  0.428702  0.678326  0.473420  1
  F  F20  1  0.305452  0.016456  0.190792  1
  F  F21  1  0.948368  0.699142  0.538420  1
  F  F22  1  0.617442  0.367919  0.237857  1
  F  F23  1  0.747545  0.996992  0.121238  1
  F  F24  1  0.715075  0.958643  0.412803  1
  F  F25  1  0.057940  0.288284  0.084646  1
  F  F26  1  0.904592  0.666117  0.209709  1
