# generated using pymatgen
data_Li3(CoO2)4
_symmetry_space_group_name_H-M   'P 1'
_cell_length_a   5.79107639
_cell_length_b   5.79107639
_cell_length_c   5.79107639
_cell_angle_alpha   58.55272316
_cell_angle_beta   58.55272316
_cell_angle_gamma   58.55272316
_symmetry_Int_Tables_number   1
_chemical_formula_structural   Li3(CoO2)4
_chemical_formula_sum   'Li3 Co4 O8'
_cell_volume   132.78389190
_cell_formula_units_Z   1
loop_
 _symmetry_equiv_pos_site_id
 _symmetry_equiv_pos_as_xyz
  1  'x, y, z'
loop_
 _atom_site_type_symbol
 _atom_site_label
 _atom_site_symmetry_multiplicity
 _atom_site_fract_x
 _atom_site_fract_y
 _atom_site_fract_z
 _atom_site_occupancy
  Li  Li0  1  0.000000  0.500000  0.500000  1
  Li  Li1  1  0.500000  0.500000  0.000000  1
  Li  Li2  1  0.500000  0.000000  0.500000  1
  Co  Co3  1  0.000000  0.000000  0.500000  1
  Co  Co4  1  1.000000  0.500000  0.000000  1
  Co  Co5  1  0.500000  0.500000  0.500000  1
  Co  Co6  1  0.500000  0.000000  0.000000  1
  O  O7  1  0.755928  0.267242  0.267242  1
  O  O8  1  0.732758  0.732758  0.244072  1
  O  O9  1  0.760907  0.760907  0.760907  1
  O  O10  1  0.267242  0.755928  0.267242  1
  O  O11  1  0.732758  0.244072  0.732758  1
  O  O12  1  0.239093  0.239093  0.239093  1
  O  O13  1  0.267242  0.267242  0.755928  1
  O  O14  1  0.244072  0.732758  0.732758  1
