# generated using pymatgen
data_Sr2LiFe2N3
_symmetry_space_group_name_H-M   'P 1'
_cell_length_a   6.50931341
_cell_length_b   6.50931341
_cell_length_c   6.55091201
_cell_angle_alpha   88.89951158
_cell_angle_beta   91.10048842
_cell_angle_gamma   60.30285305
_symmetry_Int_Tables_number   1
_chemical_formula_structural   Sr2LiFe2N3
_chemical_formula_sum   'Sr4 Li2 Fe4 N6'
_cell_volume   240.93635169
_cell_formula_units_Z   2
loop_
 _symmetry_equiv_pos_site_id
 _symmetry_equiv_pos_as_xyz
  1  'x, y, z'
loop_
 _atom_site_type_symbol
 _atom_site_label
 _atom_site_symmetry_multiplicity
 _atom_site_fract_x
 _atom_site_fract_y
 _atom_site_fract_z
 _atom_site_occupancy
  Sr  Sr0  1  0.822709  0.318041  0.099315  1
  Sr  Sr1  1  0.318041  0.822709  0.400685  1
  Sr  Sr2  1  0.177291  0.681959  0.900685  1
  Sr  Sr3  1  0.681959  0.177291  0.599315  1
  Li  Li4  1  0.807224  0.807224  0.250000  1
  Li  Li5  1  0.192776  0.192776  0.750000  1
  Fe  Fe6  1  0.571341  0.835606  0.896888  1
  Fe  Fe7  1  0.428659  0.164394  0.103112  1
  Fe  Fe8  1  0.835606  0.571341  0.603112  1
  Fe  Fe9  1  0.164394  0.428659  0.396888  1
  N  N10  1  0.410389  0.410389  0.250000  1
  N  N11  1  0.589611  0.589611  0.750000  1
  N  N12  1  0.999844  0.280918  0.484097  1
  N  N13  1  0.719082  0.000156  0.984097  1
  N  N14  1  0.000156  0.719082  0.515903  1
  N  N15  1  0.280918  0.999844  0.015903  1
