# generated using pymatgen
data_Li2Mn3(BO3)3
_symmetry_space_group_name_H-M   'P 1'
_cell_length_a   5.23711625
_cell_length_b   7.87541810
_cell_length_c   9.69958850
_cell_angle_alpha   105.39977063
_cell_angle_beta   103.88329716
_cell_angle_gamma   88.13349346
_symmetry_Int_Tables_number   1
_chemical_formula_structural   Li2Mn3(BO3)3
_chemical_formula_sum   'Li4 Mn6 B6 O18'
_cell_volume   374.21632248
_cell_formula_units_Z   2
loop_
 _symmetry_equiv_pos_site_id
 _symmetry_equiv_pos_as_xyz
  1  'x, y, z'
loop_
 _atom_site_type_symbol
 _atom_site_label
 _atom_site_symmetry_multiplicity
 _atom_site_fract_x
 _atom_site_fract_y
 _atom_site_fract_z
 _atom_site_occupancy
  Li  Li0  1  0.231564  0.021440  0.316810  1
  Li  Li1  1  0.768436  0.978560  0.683190  1
  Li  Li2  1  0.423010  0.664848  0.024660  1
  Li  Li3  1  0.576990  0.335152  0.975340  1
  Mn  Mn4  1  0.650559  0.255368  0.498425  1
  Mn  Mn5  1  0.689100  0.091312  0.161878  1
  Mn  Mn6  1  0.349441  0.744632  0.501575  1
  Mn  Mn7  1  0.310900  0.908688  0.838122  1
  Mn  Mn8  1  0.990342  0.580578  0.175443  1
  Mn  Mn9  1  0.009658  0.419422  0.824557  1
  B  B10  1  0.210344  0.127577  0.608488  1
  B  B11  1  0.126359  0.191227  0.053836  1
  B  B12  1  0.789656  0.872423  0.391512  1
  B  B13  1  0.873641  0.808773  0.946164  1
  B  B14  1  0.534025  0.468070  0.266438  1
  B  B15  1  0.465975  0.531930  0.733562  1
  O  O16  1  0.366476  0.999365  0.664963  1
  O  O17  1  0.976540  0.173562  0.653976  1
  O  O18  1  0.278583  0.195337  0.507583  1
  O  O19  1  0.360278  0.149164  0.003070  1
  O  O20  1  0.969662  0.321457  0.006110  1
  O  O21  1  0.633524  0.000635  0.335037  1
  O  O22  1  0.069368  0.109529  0.150934  1
  O  O23  1  0.721417  0.804663  0.492417  1
  O  O24  1  0.023460  0.826438  0.346024  1
  O  O25  1  0.639722  0.850836  0.996930  1
  O  O26  1  0.930632  0.890471  0.849066  1
  O  O27  1  0.593788  0.533215  0.158996  1
  O  O28  1  0.030338  0.678543  0.993890  1
  O  O29  1  0.671525  0.328968  0.310350  1
  O  O30  1  0.320142  0.530672  0.325378  1
  O  O31  1  0.406212  0.466785  0.841004  1
  O  O32  1  0.679858  0.469328  0.674622  1
  O  O33  1  0.328475  0.671032  0.689650  1
