# generated using pymatgen
data_LiVPHO5
_symmetry_space_group_name_H-M   'P 1'
_cell_length_a   5.38484434
_cell_length_b   6.06150022
_cell_length_c   6.62209387
_cell_angle_alpha   105.39948036
_cell_angle_beta   104.02586217
_cell_angle_gamma   99.28008021
_symmetry_Int_Tables_number   1
_chemical_formula_structural   LiVPHO5
_chemical_formula_sum   'Li2 V2 P2 H2 O10'
_cell_volume   196.20411742
_cell_formula_units_Z   2
loop_
 _symmetry_equiv_pos_site_id
 _symmetry_equiv_pos_as_xyz
  1  'x, y, z'
loop_
 _atom_site_type_symbol
 _atom_site_label
 _atom_site_symmetry_multiplicity
 _atom_site_fract_x
 _atom_site_fract_y
 _atom_site_fract_z
 _atom_site_occupancy
  Li  Li0  1  0.000000  0.000000  0.500000  1
  Li  Li1  1  0.000000  0.000000  0.000000  1
  V  V2  1  0.762412  0.383056  0.269105  1
  V  V3  1  0.237588  0.616944  0.730895  1
  P  P4  1  0.334697  0.560714  0.229695  1
  P  P5  1  0.665303  0.439286  0.770305  1
  H  H6  1  0.680611  0.938040  0.152510  1
  H  H7  1  0.319389  0.061960  0.847490  1
  O  O8  1  0.629239  0.680282  0.364012  1
  O  O9  1  0.239234  0.670843  0.049803  1
  O  O10  1  0.826727  0.073496  0.242868  1
  O  O11  1  0.849549  0.410785  0.617672  1
  O  O12  1  0.658140  0.702862  0.856266  1
  O  O13  1  0.341860  0.297138  0.143734  1
  O  O14  1  0.150451  0.589215  0.382328  1
  O  O15  1  0.173273  0.926504  0.757132  1
  O  O16  1  0.760766  0.329157  0.950197  1
  O  O17  1  0.370761  0.319718  0.635988  1
