# generated using pymatgen
data_Th2Fe17
_symmetry_space_group_name_H-M   'P 1'
_cell_length_a   6.45619337
_cell_length_b   6.45619337
_cell_length_c   6.45619337
_cell_angle_alpha   82.52092717
_cell_angle_beta   82.52092717
_cell_angle_gamma   82.52092717
_symmetry_Int_Tables_number   1
_chemical_formula_structural   Th2Fe17
_chemical_formula_sum   'Th2 Fe17'
_cell_volume   262.78994890
_cell_formula_units_Z   1
loop_
 _symmetry_equiv_pos_site_id
 _symmetry_equiv_pos_as_xyz
  1  'x, y, z'
loop_
 _atom_site_type_symbol
 _atom_site_label
 _atom_site_symmetry_multiplicity
 _atom_site_fract_x
 _atom_site_fract_y
 _atom_site_fract_z
 _atom_site_occupancy
  Th  Th0  1  0.341337  0.341337  0.341337  1
  Th  Th1  1  0.658663  0.658663  0.658663  1
  Fe  Fe2  1  0.500000  1.000000  1.000000  1
  Fe  Fe3  1  0.000000  0.000000  0.500000  1
  Fe  Fe4  1  0.000000  0.500000  0.000000  1
  Fe  Fe5  1  1.000000  0.709884  0.290116  1
  Fe  Fe6  1  0.709884  0.290116  0.000000  1
  Fe  Fe7  1  0.290116  0.000000  0.709884  1
  Fe  Fe8  1  0.290116  0.709884  0.000000  1
  Fe  Fe9  1  0.709884  0.000000  0.290116  1
  Fe  Fe10  1  0.000000  0.290116  0.709884  1
  Fe  Fe11  1  0.156344  0.658289  0.658289  1
  Fe  Fe12  1  0.658289  0.658289  0.156344  1
  Fe  Fe13  1  0.658289  0.156344  0.658289  1
  Fe  Fe14  1  0.843656  0.341711  0.341711  1
  Fe  Fe15  1  0.341711  0.341711  0.843656  1
  Fe  Fe16  1  0.341711  0.843656  0.341711  1
  Fe  Fe17  1  0.095558  0.095558  0.095558  1
  Fe  Fe18  1  0.904442  0.904442  0.904442  1
