# generated using pymatgen
data_LiFe4(BO3)4
_symmetry_space_group_name_H-M   'P 1'
_cell_length_a   5.31194336
_cell_length_b   9.04522182
_cell_length_c   11.42008474
_cell_angle_alpha   113.20985179
_cell_angle_beta   103.31579823
_cell_angle_gamma   89.83212876
_symmetry_Int_Tables_number   1
_chemical_formula_structural   LiFe4(BO3)4
_chemical_formula_sum   'Li2 Fe8 B8 O24'
_cell_volume   488.37004669
_cell_formula_units_Z   2
loop_
 _symmetry_equiv_pos_site_id
 _symmetry_equiv_pos_as_xyz
  1  'x, y, z'
loop_
 _atom_site_type_symbol
 _atom_site_label
 _atom_site_symmetry_multiplicity
 _atom_site_fract_x
 _atom_site_fract_y
 _atom_site_fract_z
 _atom_site_occupancy
  Li  Li0  1  0.815328  0.174389  0.336065  1
  Li  Li1  1  0.066137  0.415811  0.842141  1
  Fe  Fe2  1  0.594145  0.601270  0.873280  1
  Fe  Fe3  1  0.907919  0.888533  0.121086  1
  Fe  Fe4  1  0.164748  0.482755  0.623736  1
  Fe  Fe5  1  0.345781  0.022673  0.374962  1
  Fe  Fe6  1  0.647825  0.976091  0.622262  1
  Fe  Fe7  1  0.849647  0.528532  0.370921  1
  Fe  Fe8  1  0.095991  0.093903  0.871922  1
  Fe  Fe9  1  0.400438  0.396353  0.121026  1
  B  B10  1  0.360505  0.354524  0.369647  1
  B  B11  1  0.097020  0.766788  0.872471  1
  B  B12  1  0.850224  0.859563  0.373911  1
  B  B13  1  0.609127  0.264185  0.871449  1
  B  B14  1  0.151827  0.145954  0.632509  1
  B  B15  1  0.395148  0.728571  0.119963  1
  B  B16  1  0.649832  0.639966  0.618319  1
  B  B17  1  0.903256  0.233649  0.126443  1
  O  O18  1  0.893030  0.778372  0.930435  1
  O  O19  1  0.531999  0.538913  0.660041  1
  O  O20  1  0.830284  0.106293  0.148607  1
  O  O21  1  0.483063  0.226177  0.373319  1
  O  O22  1  0.125923  0.388737  0.412538  1
  O  O23  1  0.185365  0.612222  0.818587  1
  O  O24  1  0.725734  0.395764  0.870728  1
  O  O25  1  0.938971  0.963157  0.324237  1
  O  O26  1  0.276311  0.868233  0.169303  1
  O  O27  1  0.360564  0.093835  0.580586  1
  O  O28  1  0.066571  0.293199  0.644434  1
  O  O29  1  0.616853  0.733288  0.077637  1
  O  O30  1  0.374445  0.273005  0.914525  1
  O  O31  1  0.649985  0.905993  0.435480  1
  O  O32  1  0.712749  0.114798  0.830381  1
  O  O33  1  0.028600  0.048856  0.677100  1
  O  O34  1  0.287699  0.583488  0.107553  1
  O  O35  1  0.780435  0.376802  0.167865  1
  O  O36  1  0.865653  0.587025  0.564510  1
  O  O37  1  0.557926  0.781382  0.627669  1
  O  O38  1  0.954916  0.717471  0.361191  1
  O  O39  1  0.209165  0.897190  0.865883  1
  O  O40  1  0.460195  0.459721  0.322704  1
  O  O41  1  0.110173  0.230411  0.068254  1
