# generated using pymatgen
data_Li2Mn3(BO3)3
_symmetry_space_group_name_H-M   'P 1'
_cell_length_a   5.29808263
_cell_length_b   7.85410263
_cell_length_c   9.61347478
_cell_angle_alpha   104.76332394
_cell_angle_beta   104.22426094
_cell_angle_gamma   87.42198587
_symmetry_Int_Tables_number   1
_chemical_formula_structural   Li2Mn3(BO3)3
_chemical_formula_sum   'Li4 Mn6 B6 O18'
_cell_volume   374.90054295
_cell_formula_units_Z   2
loop_
 _symmetry_equiv_pos_site_id
 _symmetry_equiv_pos_as_xyz
  1  'x, y, z'
loop_
 _atom_site_type_symbol
 _atom_site_label
 _atom_site_symmetry_multiplicity
 _atom_site_fract_x
 _atom_site_fract_y
 _atom_site_fract_z
 _atom_site_occupancy
  Li  Li0  1  0.467152  0.230288  0.082275  1
  Li  Li1  1  0.873402  0.086960  0.573478  1
  Li  Li2  1  0.191286  0.438581  0.248063  1
  Li  Li3  1  0.541269  0.752134  0.906309  1
  Mn  Mn4  1  0.769393  0.366705  0.388239  1
  Mn  Mn5  1  0.433774  0.031341  0.707724  1
  Mn  Mn6  1  0.885206  0.300428  0.940301  1
  Mn  Mn7  1  0.107428  0.706740  0.045063  1
  Mn  Mn8  1  0.555818  0.960675  0.284166  1
  Mn  Mn9  1  0.222166  0.625395  0.617283  1
  B  B10  1  0.005480  0.080868  0.164827  1
  B  B11  1  0.650250  0.582181  0.157804  1
  B  B12  1  0.321564  0.252037  0.494139  1
  B  B13  1  0.684565  0.751524  0.513722  1
  B  B14  1  0.349653  0.418741  0.848417  1
  B  B15  1  0.986598  0.916683  0.825727  1
  O  O16  1  0.767939  0.120970  0.201389  1
  O  O17  1  0.121327  0.192339  0.107924  1
  O  O18  1  0.851283  0.053184  0.771218  1
  O  O19  1  0.895898  0.549957  0.130168  1
  O  O20  1  0.560008  0.201013  0.460831  1
  O  O21  1  0.537939  0.477345  0.220880  1
  O  O22  1  0.207079  0.166146  0.570167  1
  O  O23  1  0.507518  0.719398  0.106536  1
  O  O24  1  0.192368  0.392678  0.442204  1
  O  O25  1  0.824131  0.608066  0.548563  1
  O  O26  1  0.470448  0.265086  0.884081  1
  O  O27  1  0.777674  0.853050  0.442060  1
  O  O28  1  0.453811  0.513990  0.777593  1
  O  O29  1  0.456089  0.790937  0.562637  1
  O  O30  1  0.128138  0.473779  0.903181  1
  O  O31  1  0.142239  0.931606  0.196919  1
  O  O32  1  0.877056  0.831115  0.905198  1
  O  O33  1  0.228680  0.870259  0.795745  1
