# generated using pymatgen
data_LiSiBO4
_symmetry_space_group_name_H-M   'P 1'
_cell_length_a   4.66873754
_cell_length_b   4.66873754
_cell_length_c   4.66873754
_cell_angle_alpha   123.06644692
_cell_angle_beta   123.06644692
_cell_angle_gamma   84.76605495
_symmetry_Int_Tables_number   1
_chemical_formula_structural   LiSiBO4
_chemical_formula_sum   'Li1 Si1 B1 O4'
_cell_volume   68.31209159
_cell_formula_units_Z   1
loop_
 _symmetry_equiv_pos_site_id
 _symmetry_equiv_pos_as_xyz
  1  'x, y, z'
loop_
 _atom_site_type_symbol
 _atom_site_label
 _atom_site_symmetry_multiplicity
 _atom_site_fract_x
 _atom_site_fract_y
 _atom_site_fract_z
 _atom_site_occupancy
  Li  Li0  1  0.500000  0.500000  0.000000  1
  Si  Si1  1  0.000000  0.000000  0.000000  1
  B  B2  1  0.250000  0.750000  0.500000  1
  O  O3  1  0.144236  0.024950  0.425114  1
  O  O4  1  0.599836  0.719122  0.574886  1
  O  O5  1  0.975050  0.400164  0.119287  1
  O  O6  1  0.280878  0.855764  0.880713  1
