# generated using pymatgen
data_Li2FeOF3
_symmetry_space_group_name_H-M   'P 1'
_cell_length_a   5.99751682
_cell_length_b   5.99751682
_cell_length_c   8.49275255
_cell_angle_alpha   90.00000000
_cell_angle_beta   90.00000000
_cell_angle_gamma   90.00000000
_symmetry_Int_Tables_number   1
_chemical_formula_structural   Li2FeOF3
_chemical_formula_sum   'Li8 Fe4 O4 F12'
_cell_volume   305.48607577
_cell_formula_units_Z   4
loop_
 _symmetry_equiv_pos_site_id
 _symmetry_equiv_pos_as_xyz
  1  'x, y, z'
loop_
 _atom_site_type_symbol
 _atom_site_label
 _atom_site_symmetry_multiplicity
 _atom_site_fract_x
 _atom_site_fract_y
 _atom_site_fract_z
 _atom_site_occupancy
  Li  Li0  1  0.235634  0.251751  0.374183  1
  Li  Li1  1  0.251751  0.764366  0.124183  1
  Li  Li2  1  0.263991  0.499650  0.745199  1
  Li  Li3  1  0.500350  0.263991  0.995199  1
  Li  Li4  1  0.499650  0.736009  0.495199  1
  Li  Li5  1  0.736009  0.500350  0.245199  1
  Li  Li6  1  0.748249  0.235634  0.624183  1
  Li  Li7  1  0.764366  0.748249  0.874183  1
  Fe  Fe8  1  0.016543  0.252866  0.017370  1
  Fe  Fe9  1  0.983457  0.747134  0.517370  1
  Fe  Fe10  1  0.252866  0.983457  0.767370  1
  Fe  Fe11  1  0.747134  0.016543  0.267370  1
  O  O12  1  0.029060  0.757289  0.738106  1
  O  O13  1  0.242711  0.029060  0.988106  1
  O  O14  1  0.757289  0.970940  0.488106  1
  O  O15  1  0.970940  0.242711  0.238106  1
  F  F16  1  0.020985  0.247628  0.758549  1
  F  F17  1  0.247628  0.979015  0.508549  1
  F  F18  1  0.246187  0.493009  0.994401  1
  F  F19  1  0.239714  0.524086  0.497192  1
  F  F20  1  0.475914  0.239714  0.747192  1
  F  F21  1  0.493009  0.753813  0.744401  1
  F  F22  1  0.506991  0.246187  0.244401  1
  F  F23  1  0.524086  0.760286  0.247192  1
  F  F24  1  0.753813  0.506991  0.494401  1
  F  F25  1  0.760286  0.475914  0.997192  1
  F  F26  1  0.752372  0.020985  0.008549  1
  F  F27  1  0.979015  0.752372  0.258549  1
