# generated using pymatgen
data_Li3Fe9O5F11
_symmetry_space_group_name_H-M   'P 1'
_cell_length_a   6.27003551
_cell_length_b   6.28720272
_cell_length_c   10.70296123
_cell_angle_alpha   73.05042041
_cell_angle_beta   72.98149589
_cell_angle_gamma   60.40975810
_symmetry_Int_Tables_number   1
_chemical_formula_structural   Li3Fe9O5F11
_chemical_formula_sum   'Li3 Fe9 O5 F11'
_cell_volume   345.30128291
_cell_formula_units_Z   1
loop_
 _symmetry_equiv_pos_site_id
 _symmetry_equiv_pos_as_xyz
  1  'x, y, z'
loop_
 _atom_site_type_symbol
 _atom_site_label
 _atom_site_symmetry_multiplicity
 _atom_site_fract_x
 _atom_site_fract_y
 _atom_site_fract_z
 _atom_site_occupancy
  Li  Li0  1  0.927309  0.945240  0.687740  1
  Li  Li1  1  0.942809  0.445095  0.194464  1
  Li  Li2  1  0.444016  0.937637  0.197796  1
  Fe  Fe3  1  0.687439  0.702459  0.926618  1
  Fe  Fe4  1  0.983554  0.990907  0.027139  1
  Fe  Fe5  1  0.439642  0.943164  0.692225  1
  Fe  Fe6  1  0.932355  0.446217  0.688394  1
  Fe  Fe7  1  0.863806  0.866452  0.354315  1
  Fe  Fe8  1  0.432727  0.351154  0.859331  1
  Fe  Fe9  1  0.477539  0.474004  0.509303  1
  Fe  Fe10  1  0.423467  0.429028  0.199071  1
  Fe  Fe11  1  0.200180  0.204587  0.425305  1
  O  O12  1  0.592247  0.573012  0.799506  1
  O  O13  1  0.583756  0.030256  0.805511  1
  O  O14  1  0.269612  0.299358  0.574054  1
  O  O15  1  0.071916  0.552096  0.297949  1
  O  O16  1  0.549685  0.080005  0.296334  1
  F  F17  1  0.827557  0.823507  0.565451  1
  F  F18  1  0.821567  0.300327  0.562193  1
  F  F19  1  0.301644  0.828933  0.570368  1
  F  F20  1  0.063956  0.574695  0.811271  1
  F  F21  1  0.794040  0.789013  0.070810  1
  F  F22  1  0.563827  0.569666  0.307377  1
  F  F23  1  0.050679  0.062392  0.822433  1
  F  F24  1  0.797782  0.344808  0.060937  1
  F  F25  1  0.331921  0.796003  0.070912  1
  F  F26  1  0.076994  0.078236  0.308277  1
  F  F27  1  0.297977  0.311747  0.064916  1
