# generated using pymatgen
data_Ti2CdO5
_symmetry_space_group_name_H-M   'P 1'
_cell_length_a   5.47321536
_cell_length_b   5.47321536
_cell_length_c   10.74472340
_cell_angle_alpha   90.00000000
_cell_angle_beta   90.00000000
_cell_angle_gamma   140.16474596
_symmetry_Int_Tables_number   1
_chemical_formula_structural   Ti2CdO5
_chemical_formula_sum   'Ti4 Cd2 O10'
_cell_volume   206.18413711
_cell_formula_units_Z   2
loop_
 _symmetry_equiv_pos_site_id
 _symmetry_equiv_pos_as_xyz
  1  'x, y, z'
loop_
 _atom_site_type_symbol
 _atom_site_label
 _atom_site_symmetry_multiplicity
 _atom_site_fract_x
 _atom_site_fract_y
 _atom_site_fract_z
 _atom_site_occupancy
  Ti  Ti0  1  0.129448  0.870552  0.434292  1
  Ti  Ti1  1  0.129448  0.870552  0.065708  1
  Ti  Ti2  1  0.870552  0.129448  0.934292  1
  Ti  Ti3  1  0.870552  0.129448  0.565708  1
  Cd  Cd4  1  0.190310  0.809690  0.750000  1
  Cd  Cd5  1  0.809690  0.190310  0.250000  1
  O  O6  1  0.043811  0.956189  0.896628  1
  O  O7  1  0.043811  0.956189  0.603372  1
  O  O8  1  0.314864  0.685136  0.947525  1
  O  O9  1  0.314864  0.685136  0.552475  1
  O  O10  1  0.814882  0.185118  0.750000  1
  O  O11  1  0.185118  0.814882  0.250000  1
  O  O12  1  0.685136  0.314864  0.447525  1
  O  O13  1  0.956189  0.043811  0.396628  1
  O  O14  1  0.685136  0.314864  0.052475  1
  O  O15  1  0.956189  0.043811  0.103372  1
