# generated using pymatgen
data_Dy2Ge5Rh3
_symmetry_space_group_name_H-M   'P 1'
_cell_length_a   8.37767374
_cell_length_b   8.37767374
_cell_length_c   5.90790167
_cell_angle_alpha   71.11671341
_cell_angle_beta   108.88328659
_cell_angle_gamma   85.87338585
_symmetry_Int_Tables_number   1
_chemical_formula_structural   Dy2Ge5Rh3
_chemical_formula_sum   'Dy4 Ge10 Rh6'
_cell_volume   363.91386066
_cell_formula_units_Z   2
loop_
 _symmetry_equiv_pos_site_id
 _symmetry_equiv_pos_as_xyz
  1  'x, y, z'
loop_
 _atom_site_type_symbol
 _atom_site_label
 _atom_site_symmetry_multiplicity
 _atom_site_fract_x
 _atom_site_fract_y
 _atom_site_fract_z
 _atom_site_occupancy
  Dy  Dy0  1  0.592017  0.130102  0.236904  1
  Dy  Dy1  1  0.130102  0.592017  0.263096  1
  Dy  Dy2  1  0.407983  0.869898  0.763096  1
  Dy  Dy3  1  0.869898  0.407983  0.736904  1
  Ge  Ge4  1  0.487423  0.487423  0.250000  1
  Ge  Ge5  1  0.512577  0.512577  0.750000  1
  Ge  Ge6  1  0.793053  0.793053  0.250000  1
  Ge  Ge7  1  0.206947  0.206947  0.750000  1
  Ge  Ge8  1  0.265036  0.924876  0.168901  1
  Ge  Ge9  1  0.924876  0.265036  0.331099  1
  Ge  Ge10  1  0.734964  0.075124  0.831099  1
  Ge  Ge11  1  0.075124  0.734964  0.668901  1
  Ge  Ge12  1  0.221726  0.221726  0.250000  1
  Ge  Ge13  1  0.778274  0.778274  0.750000  1
  Rh  Rh14  1  0.545699  0.738728  0.375407  1
  Rh  Rh15  1  0.738728  0.545699  0.124593  1
  Rh  Rh16  1  0.454301  0.261272  0.624593  1
  Rh  Rh17  1  0.261272  0.454301  0.875407  1
  Rh  Rh18  1  0.998728  0.998728  0.250000  1
  Rh  Rh19  1  0.001272  0.001272  0.750000  1
