# generated using pymatgen
data_Li8MnFe7(PO4)8
_symmetry_space_group_name_H-M   'P 1'
_cell_length_a   7.72671401
_cell_length_b   7.72671401
_cell_length_c   10.44413153
_cell_angle_alpha   89.99902963
_cell_angle_beta   90.00097037
_cell_angle_gamma   75.95614448
_symmetry_Int_Tables_number   1
_chemical_formula_structural   Li8MnFe7(PO4)8
_chemical_formula_sum   'Li8 Mn1 Fe7 P8 O32'
_cell_volume   604.89933976
_cell_formula_units_Z   1
loop_
 _symmetry_equiv_pos_site_id
 _symmetry_equiv_pos_as_xyz
  1  'x, y, z'
loop_
 _atom_site_type_symbol
 _atom_site_label
 _atom_site_symmetry_multiplicity
 _atom_site_fract_x
 _atom_site_fract_y
 _atom_site_fract_z
 _atom_site_occupancy
  Li  Li0  1  0.000067  0.250032  0.000074  1
  Li  Li1  1  0.999722  0.750032  0.499642  1
  Li  Li2  1  0.249968  0.000278  0.499642  1
  Li  Li3  1  0.499718  0.249538  0.499707  1
  Li  Li4  1  0.249517  0.499979  0.000716  1
  Li  Li5  1  0.749968  0.999933  0.000074  1
  Li  Li6  1  0.500021  0.750483  0.000716  1
  Li  Li7  1  0.750462  0.500282  0.499707  1
  Mn  Mn8  1  0.387566  0.612434  0.717937  1
  Fe  Fe9  1  0.111363  0.888637  0.218235  1
  Fe  Fe10  1  0.388297  0.111816  0.781940  1
  Fe  Fe11  1  0.111525  0.388014  0.281858  1
  Fe  Fe12  1  0.611986  0.888475  0.281858  1
  Fe  Fe13  1  0.888061  0.111939  0.718136  1
  Fe  Fe14  1  0.611553  0.388447  0.218043  1
  Fe  Fe15  1  0.888184  0.611703  0.781940  1
  P  P16  1  0.334003  0.166128  0.094905  1
  P  P17  1  0.164544  0.835456  0.906595  1
  P  P18  1  0.333767  0.666233  0.404263  1
  P  P19  1  0.833738  0.166262  0.405034  1
  P  P20  1  0.668005  0.834142  0.594382  1
  P  P21  1  0.165858  0.331995  0.594382  1
  P  P22  1  0.833872  0.665997  0.094905  1
  P  P23  1  0.666715  0.333285  0.905822  1
  O  O24  1  0.129807  0.163952  0.664538  1
  O  O25  1  0.003123  0.996877  0.903942  1
  O  O26  1  0.165513  0.131502  0.165409  1
  O  O27  1  0.271960  0.228273  0.956984  1
  O  O28  1  0.227770  0.772230  0.044008  1
  O  O29  1  0.332698  0.870766  0.836105  1
  O  O30  1  0.129234  0.667302  0.836105  1
  O  O31  1  0.631607  0.165418  0.834823  1
  O  O32  1  0.495484  0.004625  0.097248  1
  O  O33  1  0.005871  0.495062  0.597418  1
  O  O34  1  0.504938  0.994129  0.597418  1
  O  O35  1  0.165392  0.631275  0.333924  1
  O  O36  1  0.665202  0.131643  0.334417  1
  O  O37  1  0.368725  0.834608  0.333924  1
  O  O38  1  0.771600  0.228400  0.542929  1
  O  O39  1  0.271028  0.728972  0.541930  1
  O  O40  1  0.728833  0.772825  0.456055  1
  O  O41  1  0.227175  0.271167  0.456055  1
  O  O42  1  0.335605  0.362871  0.664645  1
  O  O43  1  0.637129  0.664395  0.664645  1
  O  O44  1  0.836048  0.870193  0.664538  1
  O  O45  1  0.995241  0.004759  0.402526  1
  O  O46  1  0.495079  0.504921  0.402875  1
  O  O47  1  0.505300  0.494700  0.903416  1
  O  O48  1  0.368695  0.334634  0.165516  1
  O  O49  1  0.665366  0.631305  0.165516  1
  O  O50  1  0.868498  0.834487  0.165409  1
  O  O51  1  0.771727  0.728040  0.956984  1
  O  O52  1  0.728559  0.271441  0.043697  1
  O  O53  1  0.834582  0.368393  0.834823  1
  O  O54  1  0.995375  0.504516  0.097248  1
  O  O55  1  0.868357  0.334798  0.334417  1
