# generated using pymatgen
data_MnV3Cu2(PO4)6
_symmetry_space_group_name_H-M   'P 1'
_cell_length_a   8.56776714
_cell_length_b   8.56776714
_cell_length_c   8.56776714
_cell_angle_alpha   60.15439850
_cell_angle_beta   60.15439850
_cell_angle_gamma   60.15439850
_symmetry_Int_Tables_number   1
_chemical_formula_structural   MnV3Cu2(PO4)6
_chemical_formula_sum   'Mn1 V3 Cu2 P6 O24'
_cell_volume   446.27660467
_cell_formula_units_Z   1
loop_
 _symmetry_equiv_pos_site_id
 _symmetry_equiv_pos_as_xyz
  1  'x, y, z'
loop_
 _atom_site_type_symbol
 _atom_site_label
 _atom_site_symmetry_multiplicity
 _atom_site_fract_x
 _atom_site_fract_y
 _atom_site_fract_z
 _atom_site_occupancy
  Mn  Mn0  1  0.142798  0.142798  0.142798  1
  V  V1  1  0.642835  0.642835  0.642835  1
  V  V2  1  0.857824  0.857824  0.857824  1
  V  V3  1  0.357545  0.357545  0.357545  1
  Cu  Cu4  1  0.000231  0.000231  0.000231  1
  Cu  Cu5  1  0.500469  0.500469  0.500469  1
  P  P6  1  0.958663  0.249669  0.541488  1
  P  P7  1  0.541488  0.958663  0.249669  1
  P  P8  1  0.249669  0.541488  0.958663  1
  P  P9  1  0.749489  0.458870  0.040167  1
  P  P10  1  0.458870  0.040167  0.749489  1
  P  P11  1  0.040167  0.749489  0.458870  1
  O  O12  1  0.504577  0.123263  0.305087  1
  O  O13  1  0.305087  0.504577  0.123263  1
  O  O14  1  0.123263  0.305087  0.504577  1
  O  O15  1  0.942407  0.082548  0.737203  1
  O  O16  1  0.986856  0.195515  0.384381  1
  O  O17  1  0.765066  0.417692  0.564158  1
  O  O18  1  0.737203  0.942407  0.082548  1
  O  O19  1  0.564158  0.765066  0.417692  1
  O  O20  1  0.806530  0.621998  0.003913  1
  O  O21  1  0.417692  0.564158  0.765066  1
  O  O22  1  0.913888  0.266410  0.050428  1
  O  O23  1  0.621998  0.003913  0.806530  1
  O  O24  1  0.384381  0.986856  0.195515  1
  O  O25  1  0.082548  0.737203  0.942407  1
  O  O26  1  0.580954  0.444815  0.234089  1
  O  O27  1  0.195515  0.384381  0.986856  1
  O  O28  1  0.444815  0.234089  0.580954  1
  O  O29  1  0.266410  0.050428  0.913888  1
  O  O30  1  0.234089  0.580954  0.444815  1
  O  O31  1  0.003913  0.806530  0.621998  1
  O  O32  1  0.050428  0.913888  0.266410  1
  O  O33  1  0.879482  0.686534  0.502147  1
  O  O34  1  0.686534  0.502147  0.879482  1
  O  O35  1  0.502147  0.879482  0.686534  1
