# generated using pymatgen
data_InH4NCl4
_symmetry_space_group_name_H-M   'P 1'
_cell_length_a   9.32151931
_cell_length_b   9.32151931
_cell_length_c   9.32151931
_cell_angle_alpha   134.80032817
_cell_angle_beta   134.80032817
_cell_angle_gamma   65.84060321
_symmetry_Int_Tables_number   1
_chemical_formula_structural   InH4NCl4
_chemical_formula_sum   'In2 H8 N2 Cl8'
_cell_volume   401.63119532
_cell_formula_units_Z   2
loop_
 _symmetry_equiv_pos_site_id
 _symmetry_equiv_pos_as_xyz
  1  'x, y, z'
loop_
 _atom_site_type_symbol
 _atom_site_label
 _atom_site_symmetry_multiplicity
 _atom_site_fract_x
 _atom_site_fract_y
 _atom_site_fract_z
 _atom_site_occupancy
  In  In0  1  0.000000  0.000000  0.000000  1
  In  In1  1  0.750000  0.250000  0.500000  1
  H  H2  1  0.171564  0.785798  0.380491  1
  H  H3  1  0.208927  0.828436  0.614234  1
  H  H4  1  0.214202  0.594693  0.385766  1
  H  H5  1  0.344693  0.458927  0.880491  1
  H  H6  1  0.405307  0.791073  0.619509  1
  H  H7  1  0.535798  0.655307  0.114234  1
  H  H8  1  0.541073  0.421564  0.885766  1
  H  H9  1  0.578436  0.464202  0.119509  1
  N  N10  1  0.250000  0.750000  0.500000  1
  N  N11  1  0.500000  0.500000  0.000000  1
  Cl  Cl12  1  0.937707  0.322625  0.091386  1
  Cl  Cl13  1  0.072625  0.481239  0.884918  1
  Cl  Cl14  1  0.153679  0.062293  0.384918  1
  Cl  Cl15  1  0.231239  0.846321  0.908614  1
  Cl  Cl16  1  0.518761  0.403679  0.591386  1
  Cl  Cl17  1  0.596321  0.187707  0.115082  1
  Cl  Cl18  1  0.677375  0.768761  0.615082  1
  Cl  Cl19  1  0.812293  0.927375  0.408614  1
