# generated using pymatgen
data_Fe3O5F
_symmetry_space_group_name_H-M   'P 1'
_cell_length_a   5.52665471
_cell_length_b   5.52980567
_cell_length_c   7.21268441
_cell_angle_alpha   71.85061046
_cell_angle_beta   71.71061732
_cell_angle_gamma   72.85363908
_symmetry_Int_Tables_number   1
_chemical_formula_structural   Fe3O5F
_chemical_formula_sum   'Fe6 O10 F2'
_cell_volume   194.07938367
_cell_formula_units_Z   2
loop_
 _symmetry_equiv_pos_site_id
 _symmetry_equiv_pos_as_xyz
  1  'x, y, z'
loop_
 _atom_site_type_symbol
 _atom_site_label
 _atom_site_symmetry_multiplicity
 _atom_site_fract_x
 _atom_site_fract_y
 _atom_site_fract_z
 _atom_site_occupancy
  Fe  Fe0  1  0.331187  0.347150  0.159637  1
  Fe  Fe1  1  0.684258  0.642020  0.332583  1
  Fe  Fe2  1  0.338377  0.346651  0.670121  1
  Fe  Fe3  1  0.666620  0.671167  0.835892  1
  Fe  Fe4  1  0.979086  0.993662  0.496115  1
  Fe  Fe5  1  0.995923  0.004753  0.008119  1
  O  O6  1  0.022495  0.640654  0.671679  1
  O  O7  1  0.770358  0.768569  0.042253  1
  O  O8  1  0.437916  0.434525  0.372444  1
  O  O9  1  0.227656  0.235011  0.961248  1
  O  O10  1  0.574495  0.571618  0.622549  1
  O  O11  1  0.891179  0.885576  0.299930  1
  O  O12  1  0.629307  0.026760  0.676212  1
  O  O13  1  0.983759  0.343539  0.332085  1
  O  O14  1  0.310178  0.706700  0.991441  1
  O  O15  1  0.694297  0.313882  0.995971  1
  F  F16  1  0.362117  0.964809  0.334303  1
  F  F17  1  0.100794  0.102954  0.697419  1
