# generated using pymatgen
data_Li3CrCo3O8
_symmetry_space_group_name_H-M   'P 1'
_cell_length_a   5.84796436
_cell_length_b   5.84796436
_cell_length_c   5.84796436
_cell_angle_alpha   58.23076646
_cell_angle_beta   58.23076646
_cell_angle_gamma   58.23076646
_symmetry_Int_Tables_number   1
_chemical_formula_structural   Li3CrCo3O8
_chemical_formula_sum   'Li3 Cr1 Co3 O8'
_cell_volume   135.68413518
_cell_formula_units_Z   1
loop_
 _symmetry_equiv_pos_site_id
 _symmetry_equiv_pos_as_xyz
  1  'x, y, z'
loop_
 _atom_site_type_symbol
 _atom_site_label
 _atom_site_symmetry_multiplicity
 _atom_site_fract_x
 _atom_site_fract_y
 _atom_site_fract_z
 _atom_site_occupancy
  Li  Li0  1  0.000000  0.000000  0.500000  1
  Li  Li1  1  0.500000  0.000000  1.000000  1
  Li  Li2  1  1.000000  0.500000  0.000000  1
  Cr  Cr3  1  0.000000  0.000000  0.000000  1
  Co  Co4  1  0.500000  0.000000  0.500000  1
  Co  Co5  1  0.500000  0.500000  0.000000  1
  Co  Co6  1  0.000000  0.500000  0.500000  1
  O  O7  1  0.259518  0.763440  0.763440  1
  O  O8  1  0.763440  0.763440  0.259518  1
  O  O9  1  0.763440  0.259518  0.763440  1
  O  O10  1  0.262126  0.262126  0.262126  1
  O  O11  1  0.737874  0.737874  0.737874  1
  O  O12  1  0.236560  0.740482  0.236560  1
  O  O13  1  0.236560  0.236560  0.740482  1
  O  O14  1  0.740482  0.236560  0.236560  1
