# generated using pymatgen
data_Li3Mn5Cr2O12
_symmetry_space_group_name_H-M   'P 1'
_cell_length_a   5.23144776
_cell_length_b   5.23144776
_cell_length_c   10.07266149
_cell_angle_alpha   84.67300753
_cell_angle_beta   95.32699247
_cell_angle_gamma   58.30797416
_symmetry_Int_Tables_number   1
_chemical_formula_structural   Li3Mn5Cr2O12
_chemical_formula_sum   'Li3 Mn5 Cr2 O12'
_cell_volume   230.26359754
_cell_formula_units_Z   1
loop_
 _symmetry_equiv_pos_site_id
 _symmetry_equiv_pos_as_xyz
  1  'x, y, z'
loop_
 _atom_site_type_symbol
 _atom_site_label
 _atom_site_symmetry_multiplicity
 _atom_site_fract_x
 _atom_site_fract_y
 _atom_site_fract_z
 _atom_site_occupancy
  Li  Li0  1  0.153793  0.683235  0.233681  1
  Li  Li1  1  0.683235  0.153793  0.766319  1
  Li  Li2  1  0.081806  0.081806  0.000000  1
  Mn  Mn3  1  0.918206  0.918206  0.500000  1
  Mn  Mn4  1  0.583366  0.583366  0.500000  1
  Mn  Mn5  1  0.423478  0.423478  0.000000  1
  Mn  Mn6  1  0.998841  0.484140  0.760477  1
  Mn  Mn7  1  0.484140  0.998841  0.239523  1
  Cr  Cr8  1  0.744054  0.744054  0.000000  1
  Cr  Cr9  1  0.249606  0.249606  0.500000  1
  O  O10  1  0.637468  0.879618  0.614324  1
  O  O11  1  0.235617  0.942483  0.390231  1
  O  O12  1  0.879618  0.637468  0.385676  1
  O  O13  1  0.450457  0.711951  0.106944  1
  O  O14  1  0.711951  0.450457  0.893056  1
  O  O15  1  0.039416  0.753574  0.886628  1
  O  O16  1  0.942483  0.235617  0.609769  1
  O  O17  1  0.267390  0.544078  0.606003  1
  O  O18  1  0.149158  0.397021  0.113210  1
  O  O19  1  0.544078  0.267390  0.393997  1
  O  O20  1  0.753574  0.039416  0.113372  1
  O  O21  1  0.397021  0.149158  0.886790  1
