# generated using pymatgen
data_LuCuPbSe3
_symmetry_space_group_name_H-M   'P 1'
_cell_length_a   7.09158684
_cell_length_b   7.09158684
_cell_length_c   10.44859870
_cell_angle_alpha   90.00000000
_cell_angle_beta   90.00000000
_cell_angle_gamma   146.92492260
_symmetry_Int_Tables_number   1
_chemical_formula_structural   LuCuPbSe3
_chemical_formula_sum   'Lu2 Cu2 Pb2 Se6'
_cell_volume   286.76669547
_cell_formula_units_Z   2
loop_
 _symmetry_equiv_pos_site_id
 _symmetry_equiv_pos_as_xyz
  1  'x, y, z'
loop_
 _atom_site_type_symbol
 _atom_site_label
 _atom_site_symmetry_multiplicity
 _atom_site_fract_x
 _atom_site_fract_y
 _atom_site_fract_z
 _atom_site_occupancy
  Lu  Lu0  1  0.498630  0.501370  0.494462  1
  Lu  Lu1  1  0.501370  0.498630  0.994462  1
  Cu  Cu2  1  0.966392  0.033608  0.244962  1
  Cu  Cu3  1  0.033608  0.966392  0.744962  1
  Pb  Pb4  1  0.254391  0.745609  0.236358  1
  Pb  Pb5  1  0.745609  0.254391  0.736358  1
  Se  Se6  1  0.138752  0.861248  0.554020  1
  Se  Se7  1  0.139385  0.860615  0.934703  1
  Se  Se8  1  0.422796  0.577204  0.746852  1
  Se  Se9  1  0.577204  0.422796  0.246852  1
  Se  Se10  1  0.860615  0.139385  0.434703  1
  Se  Se11  1  0.861248  0.138752  0.054020  1
