# generated using pymatgen
data_HoTa7O19
_symmetry_space_group_name_H-M   'P 1'
_cell_length_a   6.26360993
_cell_length_b   6.26360993
_cell_length_c   20.09300389
_cell_angle_alpha   90.00000000
_cell_angle_beta   90.00000000
_cell_angle_gamma   120.00000000
_symmetry_Int_Tables_number   1
_chemical_formula_structural   HoTa7O19
_chemical_formula_sum   'Ho2 Ta14 O38'
_cell_volume   682.69214805
_cell_formula_units_Z   2
loop_
 _symmetry_equiv_pos_site_id
 _symmetry_equiv_pos_as_xyz
  1  'x, y, z'
loop_
 _atom_site_type_symbol
 _atom_site_label
 _atom_site_symmetry_multiplicity
 _atom_site_fract_x
 _atom_site_fract_y
 _atom_site_fract_z
 _atom_site_occupancy
  Ho  Ho0  1  0.666667  0.333333  0.000000  1
  Ho  Ho1  1  0.666667  0.333333  0.500000  1
  Ta  Ta2  1  0.693712  0.027080  0.155377  1
  Ta  Ta3  1  0.693712  0.027080  0.344623  1
  Ta  Ta4  1  0.972920  0.306288  0.655377  1
  Ta  Ta5  1  0.972920  0.306288  0.844623  1
  Ta  Ta6  1  0.693712  0.666631  0.844623  1
  Ta  Ta7  1  0.693712  0.666631  0.655377  1
  Ta  Ta8  1  0.000000  0.000000  0.500000  1
  Ta  Ta9  1  0.000000  0.000000  0.000000  1
  Ta  Ta10  1  0.972920  0.666631  0.155377  1
  Ta  Ta11  1  0.972920  0.666631  0.344623  1
  Ta  Ta12  1  0.333369  0.306288  0.155377  1
  Ta  Ta13  1  0.333369  0.306288  0.344623  1
  Ta  Ta14  1  0.333369  0.027080  0.844623  1
  Ta  Ta15  1  0.333369  0.027080  0.655377  1
  O  O16  1  0.333042  0.419199  0.653225  1
  O  O17  1  0.333042  0.419199  0.846775  1
  O  O18  1  0.375964  0.293121  0.250000  1
  O  O19  1  0.580801  0.666958  0.346775  1
  O  O20  1  0.580801  0.666958  0.153225  1
  O  O21  1  0.375964  0.082843  0.750000  1
  O  O22  1  0.333042  0.913843  0.153225  1
  O  O23  1  0.333042  0.913843  0.346775  1
  O  O24  1  0.706879  0.624036  0.750000  1
  O  O25  1  0.666667  0.333333  0.130718  1
  O  O26  1  0.666667  0.333333  0.869282  1
  O  O27  1  0.666667  0.333333  0.630718  1
  O  O28  1  0.666667  0.333333  0.369282  1
  O  O29  1  0.917157  0.624036  0.250000  1
  O  O30  1  0.580801  0.913843  0.653225  1
  O  O31  1  0.580801  0.913843  0.846775  1
  O  O32  1  0.706879  0.082843  0.250000  1
  O  O33  1  0.760928  0.050769  0.055430  1
  O  O34  1  0.760928  0.050769  0.444570  1
  O  O35  1  0.086157  0.666958  0.846775  1
  O  O36  1  0.086157  0.666958  0.653225  1
  O  O37  1  0.917157  0.293121  0.750000  1
  O  O38  1  0.949231  0.239072  0.944570  1
  O  O39  1  0.949231  0.239072  0.555430  1
  O  O40  1  0.086157  0.419199  0.153225  1
  O  O41  1  0.086157  0.419199  0.346775  1
  O  O42  1  0.760928  0.710159  0.555430  1
  O  O43  1  0.760928  0.710159  0.944570  1
  O  O44  1  0.000000  0.000000  0.333659  1
  O  O45  1  0.000000  0.000000  0.833659  1
  O  O46  1  0.000000  0.000000  0.666341  1
  O  O47  1  0.000000  0.000000  0.166341  1
  O  O48  1  0.949231  0.710159  0.055430  1
  O  O49  1  0.949231  0.710159  0.444570  1
  O  O50  1  0.289841  0.239072  0.055430  1
  O  O51  1  0.289841  0.239072  0.444570  1
  O  O52  1  0.289841  0.050769  0.555430  1
  O  O53  1  0.289841  0.050769  0.944570  1
