# generated using pymatgen
data_Li2Mn(Si2O5)2
_symmetry_space_group_name_H-M   'P 1'
_cell_length_a   6.97530207
_cell_length_b   7.63861498
_cell_length_c   9.76755276
_cell_angle_alpha   68.48045853
_cell_angle_beta   77.98107911
_cell_angle_gamma   62.87129533
_symmetry_Int_Tables_number   1
_chemical_formula_structural   Li2Mn(Si2O5)2
_chemical_formula_sum   'Li4 Mn2 Si8 O20'
_cell_volume   430.36111051
_cell_formula_units_Z   2
loop_
 _symmetry_equiv_pos_site_id
 _symmetry_equiv_pos_as_xyz
  1  'x, y, z'
loop_
 _atom_site_type_symbol
 _atom_site_label
 _atom_site_symmetry_multiplicity
 _atom_site_fract_x
 _atom_site_fract_y
 _atom_site_fract_z
 _atom_site_occupancy
  Li  Li0  1  0.860853  0.751235  0.055418  1
  Li  Li1  1  0.467261  0.313519  0.576525  1
  Li  Li2  1  0.532739  0.686481  0.423475  1
  Li  Li3  1  0.139147  0.248765  0.944582  1
  Mn  Mn4  1  0.062928  0.692510  0.422925  1
  Mn  Mn5  1  0.937072  0.307490  0.577075  1
  Si  Si6  1  0.700980  0.051228  0.185624  1
  Si  Si7  1  0.251486  0.357892  0.255414  1
  Si  Si8  1  0.805031  0.385662  0.238241  1
  Si  Si9  1  0.384031  0.722813  0.141939  1
  Si  Si10  1  0.615969  0.277187  0.858061  1
  Si  Si11  1  0.194969  0.614338  0.761759  1
  Si  Si12  1  0.748514  0.642108  0.744586  1
  Si  Si13  1  0.299020  0.948772  0.814376  1
  O  O14  1  0.699376  0.075816  0.008244  1
  O  O15  1  0.306166  0.550466  0.138350  1
  O  O16  1  0.451630  0.135988  0.252754  1
  O  O17  1  0.048035  0.377641  0.180141  1
  O  O18  1  0.809929  0.196265  0.194674  1
  O  O19  1  0.653082  0.613681  0.122235  1
  O  O20  1  0.194463  0.373231  0.420967  1
  O  O21  1  0.836790  0.808469  0.259097  1
  O  O22  1  0.696463  0.215512  0.710323  1
  O  O23  1  0.268483  0.618207  0.593848  1
  O  O24  1  0.731517  0.381793  0.406152  1
  O  O25  1  0.303537  0.784488  0.289677  1
  O  O26  1  0.163210  0.191531  0.740903  1
  O  O27  1  0.805537  0.626769  0.579033  1
  O  O28  1  0.346918  0.386319  0.877765  1
  O  O29  1  0.190071  0.803735  0.805326  1
  O  O30  1  0.951965  0.622359  0.819859  1
  O  O31  1  0.548370  0.864012  0.747246  1
  O  O32  1  0.693834  0.449534  0.861650  1
  O  O33  1  0.300624  0.924184  0.991756  1
