# generated using pymatgen
data_Ti6O
_symmetry_space_group_name_H-M   'P 1'
_cell_length_a   5.11325227
_cell_length_b   5.11325227
_cell_length_c   4.74970889
_cell_angle_alpha   90.00000000
_cell_angle_beta   90.00000000
_cell_angle_gamma   120.00000000
_symmetry_Int_Tables_number   1
_chemical_formula_structural   Ti6O
_chemical_formula_sum   'Ti6 O1'
_cell_volume   107.54545543
_cell_formula_units_Z   1
loop_
 _symmetry_equiv_pos_site_id
 _symmetry_equiv_pos_as_xyz
  1  'x, y, z'
loop_
 _atom_site_type_symbol
 _atom_site_label
 _atom_site_symmetry_multiplicity
 _atom_site_fract_x
 _atom_site_fract_y
 _atom_site_fract_z
 _atom_site_occupancy
  Ti  Ti0  1  0.331595  0.331595  0.260842  1
  Ti  Ti1  1  0.000000  0.331595  0.739158  1
  Ti  Ti2  1  0.331595  0.000000  0.739158  1
  Ti  Ti3  1  0.668405  0.668405  0.739158  1
  Ti  Ti4  1  0.000000  0.668405  0.260842  1
  Ti  Ti5  1  0.668405  0.000000  0.260842  1
  O  O6  1  0.000000  0.000000  0.000000  1
