# generated using pymatgen
data_Fe2Sb(PO4)3
_symmetry_space_group_name_H-M   'P 1'
_cell_length_a   8.85185912
_cell_length_b   8.85185912
_cell_length_c   8.85185912
_cell_angle_alpha   58.79418903
_cell_angle_beta   58.79418903
_cell_angle_gamma   58.79418903
_symmetry_Int_Tables_number   1
_chemical_formula_structural   Fe2Sb(PO4)3
_chemical_formula_sum   'Fe4 Sb2 P6 O24'
_cell_volume   476.93715578
_cell_formula_units_Z   2
loop_
 _symmetry_equiv_pos_site_id
 _symmetry_equiv_pos_as_xyz
  1  'x, y, z'
loop_
 _atom_site_type_symbol
 _atom_site_label
 _atom_site_symmetry_multiplicity
 _atom_site_fract_x
 _atom_site_fract_y
 _atom_site_fract_z
 _atom_site_occupancy
  Fe  Fe0  1  0.850845  0.850845  0.850845  1
  Fe  Fe1  1  0.649155  0.649155  0.649155  1
  Fe  Fe2  1  0.350845  0.350845  0.350845  1
  Fe  Fe3  1  0.149155  0.149155  0.149155  1
  Sb  Sb4  1  0.000000  0.000000  0.000000  1
  Sb  Sb5  1  0.500000  0.500000  0.500000  1
  P  P6  1  0.250000  0.540739  0.959261  1
  P  P7  1  0.959261  0.250000  0.540739  1
  P  P8  1  0.540739  0.959261  0.250000  1
  P  P9  1  0.459261  0.040739  0.750000  1
  P  P10  1  0.040739  0.750000  0.459261  1
  P  P11  1  0.750000  0.459261  0.040739  1
  O  O12  1  0.697278  0.492938  0.883773  1
  O  O13  1  0.492938  0.883773  0.697278  1
  O  O14  1  0.082923  0.733224  0.940006  1
  O  O15  1  0.883773  0.697278  0.492938  1
  O  O16  1  0.197278  0.383773  0.992938  1
  O  O17  1  0.417077  0.559994  0.766776  1
  O  O18  1  0.940006  0.082923  0.733224  1
  O  O19  1  0.766776  0.417077  0.559994  1
  O  O20  1  0.616227  0.007062  0.802722  1
  O  O21  1  0.559994  0.766776  0.417077  1
  O  O22  1  0.266776  0.059994  0.917077  1
  O  O23  1  0.007062  0.802722  0.616227  1
  O  O24  1  0.992938  0.197278  0.383773  1
  O  O25  1  0.733224  0.940006  0.082923  1
  O  O26  1  0.440006  0.233224  0.582923  1
  O  O27  1  0.383773  0.992938  0.197278  1
  O  O28  1  0.233224  0.582923  0.440006  1
  O  O29  1  0.059994  0.917077  0.266776  1
  O  O30  1  0.582923  0.440006  0.233224  1
  O  O31  1  0.802722  0.616227  0.007062  1
  O  O32  1  0.116227  0.302722  0.507062  1
  O  O33  1  0.917077  0.266776  0.059994  1
  O  O34  1  0.507062  0.116227  0.302722  1
  O  O35  1  0.302722  0.507062  0.116227  1
