# generated using pymatgen
data_EuB4O7
_symmetry_space_group_name_H-M   'P 1'
_cell_length_a   4.27874905
_cell_length_b   4.47236048
_cell_length_c   10.84245234
_cell_angle_alpha   90.00000000
_cell_angle_beta   90.00000000
_cell_angle_gamma   90.00000000
_symmetry_Int_Tables_number   1
_chemical_formula_structural   EuB4O7
_chemical_formula_sum   'Eu2 B8 O14'
_cell_volume   207.48234064
_cell_formula_units_Z   2
loop_
 _symmetry_equiv_pos_site_id
 _symmetry_equiv_pos_as_xyz
  1  'x, y, z'
loop_
 _atom_site_type_symbol
 _atom_site_label
 _atom_site_symmetry_multiplicity
 _atom_site_fract_x
 _atom_site_fract_y
 _atom_site_fract_z
 _atom_site_occupancy
  Eu  Eu0  1  0.510346  0.209653  0.500000  1
  Eu  Eu1  1  0.010346  0.790347  0.000000  1
  B  B2  1  0.505646  0.822559  0.251131  1
  B  B3  1  0.005646  0.177441  0.248869  1
  B  B4  1  0.531458  0.325947  0.121615  1
  B  B5  1  0.031458  0.674053  0.378385  1
  B  B6  1  0.031458  0.674053  0.621615  1
  B  B7  1  0.531458  0.325947  0.878385  1
  B  B8  1  0.005646  0.177441  0.751131  1
  B  B9  1  0.505646  0.822559  0.748869  1
  O  O10  1  0.461101  0.642059  0.142222  1
  O  O11  1  0.365894  0.729388  0.635697  1
  O  O12  1  0.865894  0.270612  0.864303  1
  O  O13  1  0.865894  0.270612  0.135697  1
  O  O14  1  0.861792  0.869454  0.721025  1
  O  O15  1  0.361792  0.130546  0.778975  1
  O  O16  1  0.361792  0.130546  0.221025  1
  O  O17  1  0.861792  0.869454  0.278975  1
  O  O18  1  0.961101  0.357941  0.642222  1
  O  O19  1  0.461101  0.642059  0.857778  1
  O  O20  1  0.924871  0.768851  0.500000  1
  O  O21  1  0.424871  0.231149  0.000000  1
  O  O22  1  0.365894  0.729388  0.364303  1
  O  O23  1  0.961101  0.357941  0.357778  1
