# generated using pymatgen
data_LiAg2F4
_symmetry_space_group_name_H-M   'P 1'
_cell_length_a   8.11436061
_cell_length_b   8.11436061
_cell_length_c   6.17348030
_cell_angle_alpha   90.00000000
_cell_angle_beta   90.00000000
_cell_angle_gamma   90.70835109
_symmetry_Int_Tables_number   1
_chemical_formula_structural   LiAg2F4
_chemical_formula_sum   'Li4 Ag8 F16'
_cell_volume   406.44846201
_cell_formula_units_Z   4
loop_
 _symmetry_equiv_pos_site_id
 _symmetry_equiv_pos_as_xyz
  1  'x, y, z'
loop_
 _atom_site_type_symbol
 _atom_site_label
 _atom_site_symmetry_multiplicity
 _atom_site_fract_x
 _atom_site_fract_y
 _atom_site_fract_z
 _atom_site_occupancy
  Li  Li0  1  0.500000  1.000000  0.779224  1
  Li  Li1  1  0.500000  1.000000  0.279224  1
  Li  Li2  1  0.000000  0.500000  0.220776  1
  Li  Li3  1  0.000000  0.500000  0.720776  1
  Ag  Ag4  1  0.830810  0.830810  0.500000  1
  Ag  Ag5  1  0.155057  0.844943  1.000000  1
  Ag  Ag6  1  0.844943  0.155057  0.000000  1
  Ag  Ag7  1  0.169190  0.169190  0.500000  1
  Ag  Ag8  1  0.655057  0.344943  0.500000  1
  Ag  Ag9  1  0.330810  0.330810  1.000000  1
  Ag  Ag10  1  0.344943  0.655057  0.500000  1
  Ag  Ag11  1  0.669190  0.669190  1.000000  1
  F  F12  1  0.443866  0.761032  0.792039  1
  F  F13  1  0.552692  0.770661  0.317247  1
  F  F14  1  0.729339  0.947308  0.817247  1
  F  F15  1  0.261032  0.943866  0.292039  1
  F  F16  1  0.738968  0.056134  0.292039  1
  F  F17  1  0.270661  0.052692  0.817247  1
  F  F18  1  0.447308  0.229339  0.317247  1
  F  F19  1  0.556134  0.238968  0.792039  1
  F  F20  1  0.943866  0.261032  0.707961  1
  F  F21  1  0.052692  0.270661  0.182753  1
  F  F22  1  0.229339  0.447308  0.682753  1
  F  F23  1  0.761032  0.443866  0.207961  1
  F  F24  1  0.238968  0.556134  0.207961  1
  F  F25  1  0.770661  0.552692  0.682753  1
  F  F26  1  0.947308  0.729339  0.182753  1
  F  F27  1  0.056134  0.738968  0.707961  1
