# generated using pymatgen
data_Li2Mn5(PO4)4
_symmetry_space_group_name_H-M   'P 1'
_cell_length_a   5.35187826
_cell_length_b   8.27567980
_cell_length_c   8.37550360
_cell_angle_alpha   111.37014033
_cell_angle_beta   90.21551243
_cell_angle_gamma   102.13628359
_symmetry_Int_Tables_number   1
_chemical_formula_structural   Li2Mn5(PO4)4
_chemical_formula_sum   'Li2 Mn5 P4 O16'
_cell_volume   336.41077733
_cell_formula_units_Z   1
loop_
 _symmetry_equiv_pos_site_id
 _symmetry_equiv_pos_as_xyz
  1  'x, y, z'
loop_
 _atom_site_type_symbol
 _atom_site_label
 _atom_site_symmetry_multiplicity
 _atom_site_fract_x
 _atom_site_fract_y
 _atom_site_fract_z
 _atom_site_occupancy
  Li  Li0  1  0.608346  0.062380  0.296451  1
  Li  Li1  1  0.391654  0.937620  0.703549  1
  Mn  Mn2  1  0.100630  0.256053  0.784438  1
  Mn  Mn3  1  0.000000  0.000000  0.000000  1
  Mn  Mn4  1  0.644559  0.409252  0.668082  1
  Mn  Mn5  1  0.355441  0.590748  0.331918  1
  Mn  Mn6  1  0.899370  0.743947  0.215562  1
  P  P7  1  0.131518  0.206704  0.424833  1
  P  P8  1  0.619148  0.296656  0.028129  1
  P  P9  1  0.380852  0.703344  0.971871  1
  P  P10  1  0.868482  0.793296  0.575167  1
  O  O11  1  0.330628  0.206868  0.961731  1
  O  O12  1  0.756422  0.320412  0.869497  1
  O  O13  1  0.079110  0.029881  0.263669  1
  O  O14  1  0.874913  0.229759  0.508457  1
  O  O15  1  0.319246  0.184328  0.557124  1
  O  O16  1  0.735576  0.175250  0.094650  1
  O  O17  1  0.351604  0.515098  0.830242  1
  O  O18  1  0.262440  0.363706  0.379033  1
  O  O19  1  0.737560  0.636294  0.620967  1
  O  O20  1  0.648396  0.484902  0.169758  1
  O  O21  1  0.264424  0.824750  0.905350  1
  O  O22  1  0.680754  0.815672  0.442876  1
  O  O23  1  0.125087  0.770241  0.491543  1
  O  O24  1  0.920890  0.970119  0.736331  1
  O  O25  1  0.243578  0.679588  0.130503  1
  O  O26  1  0.669372  0.793132  0.038269  1
