# generated using pymatgen
data_Fe3O5F
_symmetry_space_group_name_H-M   'P 1'
_cell_length_a   5.51490091
_cell_length_b   5.54850555
_cell_length_c   7.08063339
_cell_angle_alpha   73.44575197
_cell_angle_beta   72.93768095
_cell_angle_gamma   74.68558180
_symmetry_Int_Tables_number   1
_chemical_formula_structural   Fe3O5F
_chemical_formula_sum   'Fe6 O10 F2'
_cell_volume   194.65158789
_cell_formula_units_Z   2
loop_
 _symmetry_equiv_pos_site_id
 _symmetry_equiv_pos_as_xyz
  1  'x, y, z'
loop_
 _atom_site_type_symbol
 _atom_site_label
 _atom_site_symmetry_multiplicity
 _atom_site_fract_x
 _atom_site_fract_y
 _atom_site_fract_z
 _atom_site_occupancy
  Fe  Fe0  1  0.663917  0.655003  0.840493  1
  Fe  Fe1  1  0.304943  0.360312  0.666892  1
  Fe  Fe2  1  0.695057  0.639688  0.333108  1
  Fe  Fe3  1  0.336083  0.344997  0.159507  1
  Fe  Fe4  1  0.000000  0.000000  0.500000  1
  Fe  Fe5  1  0.000000  0.000000  0.000000  1
  O  O6  1  0.011078  0.655744  0.664576  1
  O  O7  1  0.906846  0.891257  0.296938  1
  O  O8  1  0.224679  0.237235  0.962421  1
  O  O9  1  0.562470  0.565245  0.627017  1
  O  O10  1  0.775321  0.762765  0.037579  1
  O  O11  1  0.437530  0.434755  0.372983  1
  O  O12  1  0.093154  0.108743  0.703062  1
  O  O13  1  0.988922  0.344256  0.335424  1
  O  O14  1  0.311322  0.698458  0.994253  1
  O  O15  1  0.688678  0.301542  0.005747  1
  F  F16  1  0.374852  0.964619  0.331427  1
  F  F17  1  0.625148  0.035381  0.668573  1
