# generated using pymatgen
data_FeO
_symmetry_space_group_name_H-M   'P 1'
_cell_length_a   5.30786264
_cell_length_b   5.30786264
_cell_length_c   10.60446960
_cell_angle_alpha   90.00000000
_cell_angle_beta   90.00000000
_cell_angle_gamma   120.00000000
_symmetry_Int_Tables_number   1
_chemical_formula_structural   FeO
_chemical_formula_sum   'Fe12 O12'
_cell_volume   258.73723600
_cell_formula_units_Z   12
loop_
 _symmetry_equiv_pos_site_id
 _symmetry_equiv_pos_as_xyz
  1  'x, y, z'
loop_
 _atom_site_type_symbol
 _atom_site_label
 _atom_site_symmetry_multiplicity
 _atom_site_fract_x
 _atom_site_fract_y
 _atom_site_fract_z
 _atom_site_occupancy
  Fe  Fe0  1  0.327232  0.993117  0.124811  1
  Fe  Fe1  1  0.327232  0.993117  0.375189  1
  Fe  Fe2  1  0.006883  0.334115  0.124811  1
  Fe  Fe3  1  0.006883  0.334115  0.375189  1
  Fe  Fe4  1  0.665885  0.672768  0.124811  1
  Fe  Fe5  1  0.665885  0.672768  0.375189  1
  Fe  Fe6  1  0.334115  0.006883  0.624811  1
  Fe  Fe7  1  0.334115  0.006883  0.875189  1
  Fe  Fe8  1  0.672768  0.665885  0.624811  1
  Fe  Fe9  1  0.672768  0.665885  0.875189  1
  Fe  Fe10  1  0.993117  0.327232  0.875189  1
  Fe  Fe11  1  0.993117  0.327232  0.624811  1
  O  O12  1  0.988760  0.664947  0.750000  1
  O  O13  1  0.333333  0.666667  0.514471  1
  O  O14  1  0.000000  0.000000  0.500000  1
  O  O15  1  0.000000  0.000000  0.000000  1
  O  O16  1  0.333333  0.666667  0.985529  1
  O  O17  1  0.335053  0.323813  0.750000  1
  O  O18  1  0.676187  0.011240  0.750000  1
  O  O19  1  0.323813  0.335053  0.250000  1
  O  O20  1  0.666667  0.333333  0.014471  1
  O  O21  1  0.666667  0.333333  0.485529  1
  O  O22  1  0.011240  0.676187  0.250000  1
  O  O23  1  0.664947  0.988760  0.250000  1
