# generated using pymatgen
data_Pr2CdCu2
_symmetry_space_group_name_H-M   'P 1'
_cell_length_a   5.66040499
_cell_length_b   5.66040499
_cell_length_c   7.68354821
_cell_angle_alpha   77.79084084
_cell_angle_beta   102.20915916
_cell_angle_gamma   97.78683914
_symmetry_Int_Tables_number   1
_chemical_formula_structural   Pr2CdCu2
_chemical_formula_sum   'Pr4 Cd2 Cu4'
_cell_volume   234.10807484
_cell_formula_units_Z   2
loop_
 _symmetry_equiv_pos_site_id
 _symmetry_equiv_pos_as_xyz
  1  'x, y, z'
loop_
 _atom_site_type_symbol
 _atom_site_label
 _atom_site_symmetry_multiplicity
 _atom_site_fract_x
 _atom_site_fract_y
 _atom_site_fract_z
 _atom_site_occupancy
  Pr  Pr0  1  0.661539  0.338461  0.228470  1
  Pr  Pr1  1  0.338461  0.661539  0.771530  1
  Pr  Pr2  1  0.209516  0.790484  0.245448  1
  Pr  Pr3  1  0.790484  0.209516  0.754552  1
  Cd  Cd4  1  0.214126  0.214126  0.500000  1
  Cd  Cd5  1  0.785874  0.785874  0.500000  1
  Cu  Cu6  1  0.316182  0.113130  0.905801  1
  Cu  Cu7  1  0.113130  0.316182  0.094199  1
  Cu  Cu8  1  0.683818  0.886870  0.094199  1
  Cu  Cu9  1  0.886870  0.683818  0.905801  1
