# generated using pymatgen
data_LiV4OF11
_symmetry_space_group_name_H-M   'P 1'
_cell_length_a   5.23672122
_cell_length_b   5.54140994
_cell_length_c   17.22778801
_cell_angle_alpha   83.63258026
_cell_angle_beta   82.16091542
_cell_angle_gamma   62.11514152
_symmetry_Int_Tables_number   1
_chemical_formula_structural   LiV4OF11
_chemical_formula_sum   'Li2 V8 O2 F22'
_cell_volume   437.11930518
_cell_formula_units_Z   2
loop_
 _symmetry_equiv_pos_site_id
 _symmetry_equiv_pos_as_xyz
  1  'x, y, z'
loop_
 _atom_site_type_symbol
 _atom_site_label
 _atom_site_symmetry_multiplicity
 _atom_site_fract_x
 _atom_site_fract_y
 _atom_site_fract_z
 _atom_site_occupancy
  Li  Li0  1  0.483328  0.343755  0.707928  1
  Li  Li1  1  0.516672  0.656245  0.292072  1
  V  V2  1  0.781779  0.732191  0.754743  1
  V  V3  1  0.358963  0.386193  0.873444  1
  V  V4  1  0.871374  0.879150  0.376373  1
  V  V5  1  0.500000  0.500000  0.500000  1
  V  V6  1  0.000000  0.000000  0.000000  1
  V  V7  1  0.641037  0.613807  0.126556  1
  V  V8  1  0.218221  0.267809  0.245257  1
  V  V9  1  0.128626  0.120850  0.623627  1
  O  O10  1  0.152366  0.530897  0.783684  1
  O  O11  1  0.847634  0.469103  0.216316  1
  F  F12  1  0.076848  0.683724  0.940304  1
  F  F13  1  0.179614  0.576015  0.314930  1
  F  F14  1  0.663453  0.094920  0.801651  1
  F  F15  1  0.106790  0.703307  0.465576  1
  F  F16  1  0.421764  0.391966  0.160968  1
  F  F17  1  0.613320  0.207226  0.960474  1
  F  F18  1  0.348204  0.345998  0.597278  1
  F  F19  1  0.625091  0.038696  0.290871  1
  F  F20  1  0.835901  0.847835  0.090171  1
  F  F21  1  0.578236  0.608034  0.839032  1
  F  F22  1  0.586613  0.177707  0.441917  1
  F  F23  1  0.923152  0.316276  0.059696  1
  F  F24  1  0.902509  0.916182  0.656935  1
  F  F25  1  0.651796  0.654002  0.402722  1
  F  F26  1  0.164099  0.152165  0.909829  1
  F  F27  1  0.893210  0.296693  0.534424  1
  F  F28  1  0.097491  0.083818  0.343065  1
  F  F29  1  0.386680  0.792774  0.039526  1
  F  F30  1  0.820386  0.423985  0.685070  1
  F  F31  1  0.336547  0.905080  0.198349  1
  F  F32  1  0.413387  0.822293  0.558083  1
  F  F33  1  0.374909  0.961304  0.709129  1
