# generated using pymatgen
data_Li3V3P8O29
_symmetry_space_group_name_H-M   'P 1'
_cell_length_a   9.78216589
_cell_length_b   9.78216589
_cell_length_c   14.30669689
_cell_angle_alpha   89.36013153
_cell_angle_beta   90.63986847
_cell_angle_gamma   119.83558837
_symmetry_Int_Tables_number   1
_chemical_formula_structural   Li3V3P8O29
_chemical_formula_sum   'Li6 V6 P16 O58'
_cell_volume   1187.46551531
_cell_formula_units_Z   2
loop_
 _symmetry_equiv_pos_site_id
 _symmetry_equiv_pos_as_xyz
  1  'x, y, z'
loop_
 _atom_site_type_symbol
 _atom_site_label
 _atom_site_symmetry_multiplicity
 _atom_site_fract_x
 _atom_site_fract_y
 _atom_site_fract_z
 _atom_site_occupancy
  Li  Li0  1  0.080843  0.308623  0.438920  1
  Li  Li1  1  0.691377  0.919157  0.938920  1
  Li  Li2  1  0.305075  0.084580  0.057944  1
  Li  Li3  1  0.318197  0.226505  0.557724  1
  Li  Li4  1  0.915420  0.694925  0.557944  1
  Li  Li5  1  0.773495  0.681803  0.057724  1
  V  V6  1  0.565090  0.569382  0.254098  1
  V  V7  1  0.994236  0.429885  0.241580  1
  V  V8  1  0.570115  0.005764  0.741580  1
  V  V9  1  0.433905  0.997254  0.255217  1
  V  V10  1  0.002746  0.566095  0.755217  1
  V  V11  1  0.430618  0.434910  0.754098  1
  P  P12  1  0.230513  0.317244  0.160094  1
  P  P13  1  0.087402  0.320217  0.658015  1
  P  P14  1  0.682756  0.769487  0.660094  1
  P  P15  1  0.326883  0.659871  0.369204  1
  P  P16  1  0.340129  0.673117  0.869204  1
  P  P17  1  0.679783  0.912598  0.158015  1
  P  P18  1  0.774187  0.085021  0.339637  1
  P  P19  1  0.087345  0.773929  0.162641  1
  P  P20  1  0.914979  0.225813  0.839637  1
  P  P21  1  0.226071  0.912655  0.662641  1
  P  P22  1  0.322164  0.085611  0.842082  1
  P  P23  1  0.658424  0.333553  0.130546  1
  P  P24  1  0.666447  0.341576  0.630546  1
  P  P25  1  0.319111  0.230693  0.341022  1
  P  P26  1  0.914389  0.677836  0.342082  1
  P  P27  1  0.769307  0.680889  0.841022  1
  O  O28  1  0.247201  0.240786  0.430588  1
  O  O29  1  0.255750  0.340234  0.666188  1
  O  O30  1  0.992173  0.206371  0.743753  1
  O  O31  1  0.001411  0.232767  0.925173  1
  O  O32  1  0.383398  0.476785  0.177400  1
  O  O33  1  0.087919  0.346028  0.164977  1
  O  O34  1  0.339635  0.523294  0.824072  1
  O  O35  1  0.523215  0.616602  0.677400  1
  O  O36  1  0.759214  0.752799  0.930588  1
  O  O37  1  0.659766  0.744250  0.166188  1
  O  O38  1  0.178811  0.511694  0.328615  1
  O  O39  1  0.476706  0.660365  0.324072  1
  O  O40  1  0.095845  0.479645  0.681318  1
  O  O41  1  0.334242  0.659578  0.472454  1
  O  O42  1  0.340422  0.665758  0.972454  1
  O  O43  1  0.095495  0.618884  0.176283  1
  O  O44  1  0.488306  0.821189  0.828615  1
  O  O45  1  0.187876  0.668244  0.825186  1
  O  O46  1  0.653972  0.912081  0.664977  1
  O  O47  1  0.793629  0.007827  0.243753  1
  O  O48  1  0.744368  0.984648  0.066029  1
  O  O49  1  0.767233  0.998589  0.425173  1
  O  O50  1  0.520355  0.904155  0.181318  1
  O  O51  1  0.331756  0.812124  0.325186  1
  O  O52  1  0.083393  0.743280  0.662155  1
  O  O53  1  0.744010  0.082373  0.833275  1
  O  O54  1  0.381116  0.904505  0.676283  1
  O  O55  1  0.015352  0.255632  0.566029  1
  O  O56  1  0.984876  0.742411  0.434092  1
  O  O57  1  0.618544  0.094046  0.321052  1
  O  O58  1  0.256720  0.916607  0.162155  1
  O  O59  1  0.015746  0.796696  0.258950  1
  O  O60  1  0.917627  0.255990  0.333275  1
  O  O61  1  0.666349  0.189509  0.674487  1
  O  O62  1  0.480392  0.093335  0.818562  1
  O  O63  1  0.257589  0.015124  0.934092  1
  O  O64  1  0.233398  0.009475  0.580607  1
  O  O65  1  0.203304  0.984254  0.758950  1
  O  O66  1  0.343029  0.086566  0.333026  1
  O  O67  1  0.810491  0.333651  0.174487  1
  O  O68  1  0.905954  0.381456  0.821052  1
  O  O69  1  0.512143  0.182682  0.171815  1
  O  O70  1  0.662862  0.336312  0.526693  1
  O  O71  1  0.663688  0.337138  0.026693  1
  O  O72  1  0.906665  0.519608  0.318562  1
  O  O73  1  0.515925  0.337472  0.670424  1
  O  O74  1  0.817318  0.487857  0.671815  1
  O  O75  1  0.346153  0.254405  0.827370  1
  O  O76  1  0.205399  0.214671  0.255746  1
  O  O77  1  0.235271  0.229752  0.078317  1
  O  O78  1  0.480156  0.382241  0.323091  1
  O  O79  1  0.662528  0.484075  0.170424  1
  O  O80  1  0.913434  0.656971  0.833026  1
  O  O81  1  0.617759  0.519844  0.823091  1
  O  O82  1  0.990525  0.766602  0.080607  1
  O  O83  1  0.745595  0.653847  0.327370  1
  O  O84  1  0.770248  0.764729  0.578317  1
  O  O85  1  0.785329  0.794601  0.755746  1
