# generated using pymatgen
data_Rb2CoSe2
_symmetry_space_group_name_H-M   'P 1'
_cell_length_a   8.44111129
_cell_length_b   8.44111129
_cell_length_c   8.44111129
_cell_angle_alpha   134.34958598
_cell_angle_beta   129.30034333
_cell_angle_gamma   70.58427913
_symmetry_Int_Tables_number   1
_chemical_formula_structural   Rb2CoSe2
_chemical_formula_sum   'Rb4 Co2 Se4'
_cell_volume   326.13519546
_cell_formula_units_Z   2
loop_
 _symmetry_equiv_pos_site_id
 _symmetry_equiv_pos_as_xyz
  1  'x, y, z'
loop_
 _atom_site_type_symbol
 _atom_site_label
 _atom_site_symmetry_multiplicity
 _atom_site_fract_x
 _atom_site_fract_y
 _atom_site_fract_z
 _atom_site_occupancy
  Rb  Rb0  1  0.817762  0.645251  0.172510  1
  Rb  Rb1  1  0.182238  0.354749  0.827490  1
  Rb  Rb2  1  0.527259  0.854749  0.672510  1
  Rb  Rb3  1  0.472741  0.145251  0.327490  1
  Co  Co4  1  0.000000  0.750000  0.750000  1
  Co  Co5  1  0.000000  0.250000  0.250000  1
  Se  Se6  1  0.269777  0.596475  0.673302  1
  Se  Se7  1  0.076827  0.903525  0.173302  1
  Se  Se8  1  0.923173  0.096475  0.826698  1
  Se  Se9  1  0.730223  0.403525  0.326698  1
