# generated using pymatgen
data_RbMnP3HO10
_symmetry_space_group_name_H-M   'P 1'
_cell_length_a   7.55151575
_cell_length_b   7.55151575
_cell_length_c   8.66597039
_cell_angle_alpha   77.22710177
_cell_angle_beta   102.77289823
_cell_angle_gamma   108.47748753
_symmetry_Int_Tables_number   1
_chemical_formula_structural   RbMnP3HO10
_chemical_formula_sum   'Rb2 Mn2 P6 H2 O20'
_cell_volume   450.97252282
_cell_formula_units_Z   2
loop_
 _symmetry_equiv_pos_site_id
 _symmetry_equiv_pos_as_xyz
  1  'x, y, z'
loop_
 _atom_site_type_symbol
 _atom_site_label
 _atom_site_symmetry_multiplicity
 _atom_site_fract_x
 _atom_site_fract_y
 _atom_site_fract_z
 _atom_site_occupancy
  Rb  Rb0  1  0.359014  0.917882  0.220707  1
  Rb  Rb1  1  0.917882  0.359014  0.779293  1
  Mn  Mn2  1  0.799942  0.799942  0.000000  1
  Mn  Mn3  1  0.287911  0.287911  0.500000  1
  P  P4  1  0.920107  0.468162  0.308406  1
  P  P5  1  0.468162  0.920107  0.691594  1
  P  P6  1  0.922793  0.095374  0.262994  1
  P  P7  1  0.095374  0.922793  0.737006  1
  P  P8  1  0.537636  0.495991  0.233999  1
  P  P9  1  0.495991  0.537636  0.766001  1
  H  H10  1  0.390188  0.390188  0.000000  1
  H  H11  1  0.879027  0.879027  0.500000  1
  O  O12  1  0.798919  0.963354  0.384011  1
  O  O13  1  0.963354  0.798919  0.615989  1
  O  O14  1  0.891907  0.029270  0.101895  1
  O  O15  1  0.029270  0.891907  0.898105  1
  O  O16  1  0.135523  0.146640  0.330962  1
  O  O17  1  0.146640  0.135523  0.669038  1
  O  O18  1  0.862059  0.290764  0.211483  1
  O  O19  1  0.290764  0.862059  0.788517  1
  O  O20  1  0.053418  0.435959  0.461396  1
  O  O21  1  0.435959  0.053418  0.538604  1
  O  O22  1  0.973478  0.645998  0.189428  1
  O  O23  1  0.645998  0.973478  0.810572  1
  O  O24  1  0.719794  0.452697  0.357903  1
  O  O25  1  0.452697  0.719794  0.642097  1
  O  O26  1  0.596661  0.693136  0.131587  1
  O  O27  1  0.693136  0.596661  0.868413  1
  O  O28  1  0.402165  0.499654  0.340397  1
  O  O29  1  0.499654  0.402165  0.659603  1
  O  O30  1  0.458553  0.335057  0.134302  1
  O  O31  1  0.335057  0.458553  0.865698  1
