# generated using pymatgen
data_Li3Fe8(BO3)8
_symmetry_space_group_name_H-M   'P 1'
_cell_length_a   5.25827979
_cell_length_b   5.27390817
_cell_length_c   20.16484405
_cell_angle_alpha   90.51824931
_cell_angle_beta   89.89561789
_cell_angle_gamma   119.50900260
_symmetry_Int_Tables_number   1
_chemical_formula_structural   Li3Fe8(BO3)8
_chemical_formula_sum   'Li3 Fe8 B8 O24'
_cell_volume   486.64193304
_cell_formula_units_Z   1
loop_
 _symmetry_equiv_pos_site_id
 _symmetry_equiv_pos_as_xyz
  1  'x, y, z'
loop_
 _atom_site_type_symbol
 _atom_site_label
 _atom_site_symmetry_multiplicity
 _atom_site_fract_x
 _atom_site_fract_y
 _atom_site_fract_z
 _atom_site_occupancy
  Li  Li0  1  0.359664  0.332354  0.667885  1
  Li  Li1  1  0.332209  0.356998  0.920471  1
  Li  Li2  1  0.333749  0.359127  0.418090  1
  Fe  Fe3  1  0.323201  0.983439  0.810542  1
  Fe  Fe4  1  0.322229  0.982067  0.310223  1
  Fe  Fe5  1  0.991018  0.684806  0.937471  1
  Fe  Fe6  1  0.993485  0.684763  0.436684  1
  Fe  Fe7  1  0.984458  0.324735  0.560210  1
  Fe  Fe8  1  0.999455  0.327866  0.059537  1
  Fe  Fe9  1  0.685440  0.992309  0.686550  1
  Fe  Fe10  1  0.672894  0.000711  0.183962  1
  B  B11  1  0.660307  0.004094  0.935940  1
  B  B12  1  0.664616  0.004764  0.435585  1
  B  B13  1  0.989558  0.327042  0.813264  1
  B  B14  1  0.990475  0.328304  0.311759  1
  B  B15  1  0.004665  0.663019  0.685757  1
  B  B16  1  0.999720  0.659243  0.185442  1
  B  B17  1  0.327434  0.989582  0.562673  1
  B  B18  1  0.335240  0.997459  0.061702  1
  O  O19  1  0.725255  0.111068  0.788268  1
  O  O20  1  0.727381  0.117447  0.283830  1
  O  O21  1  0.912624  0.257915  0.958817  1
  O  O22  1  0.421629  0.032577  0.913594  1
  O  O23  1  0.918055  0.256368  0.458625  1
  O  O24  1  0.427424  0.035988  0.412816  1
  O  O25  1  0.020701  0.595376  0.831634  1
  O  O26  1  0.280479  0.221465  0.570161  1
  O  O27  1  0.018548  0.592914  0.332377  1
  O  O28  1  0.300734  0.235647  0.059287  1
  O  O29  1  0.220914  0.279233  0.821632  1
  O  O30  1  0.214886  0.273444  0.322273  1
  O  O31  1  0.740698  0.649000  0.684172  1
  O  O32  1  0.767169  0.702362  0.183505  1
  O  O33  1  0.648959  0.742465  0.935086  1
  O  O34  1  0.036168  0.425107  0.663577  1
  O  O35  1  0.649924  0.741460  0.434045  1
  O  O36  1  0.989580  0.402115  0.163090  1
  O  O37  1  0.596017  0.021415  0.581365  1
  O  O38  1  0.598480  0.019102  0.084513  1
  O  O39  1  0.111286  0.725046  0.538098  1
  O  O40  1  0.116376  0.727491  0.039835  1
  O  O41  1  0.256367  0.917930  0.708408  1
  O  O42  1  0.268423  0.878585  0.211350  1
