# generated using pymatgen
data_CrGaSe3
_symmetry_space_group_name_H-M   'P 1'
_cell_length_a   3.79633492
_cell_length_b   10.38921672
_cell_length_c   12.57238461
_cell_angle_alpha   90.00000000
_cell_angle_beta   90.00000000
_cell_angle_gamma   90.00000000
_symmetry_Int_Tables_number   1
_chemical_formula_structural   CrGaSe3
_chemical_formula_sum   'Cr4 Ga4 Se12'
_cell_volume   495.86674533
_cell_formula_units_Z   4
loop_
 _symmetry_equiv_pos_site_id
 _symmetry_equiv_pos_as_xyz
  1  'x, y, z'
loop_
 _atom_site_type_symbol
 _atom_site_label
 _atom_site_symmetry_multiplicity
 _atom_site_fract_x
 _atom_site_fract_y
 _atom_site_fract_z
 _atom_site_occupancy
  Cr  Cr0  1  0.250000  0.904773  0.889574  1
  Cr  Cr1  1  0.750000  0.095227  0.110426  1
  Cr  Cr2  1  0.250000  0.404773  0.610426  1
  Cr  Cr3  1  0.750000  0.595227  0.389574  1
  Ga  Ga4  1  0.750000  0.766656  0.705930  1
  Ga  Ga5  1  0.250000  0.233344  0.294070  1
  Ga  Ga6  1  0.750000  0.266656  0.794070  1
  Ga  Ga7  1  0.250000  0.733344  0.205930  1
  Se  Se8  1  0.250000  0.428421  0.405779  1
  Se  Se9  1  0.750000  0.571579  0.594221  1
  Se  Se10  1  0.250000  0.928421  0.094221  1
  Se  Se11  1  0.750000  0.071579  0.905779  1
  Se  Se12  1  0.750000  0.588528  0.182456  1
  Se  Se13  1  0.250000  0.411472  0.817544  1
  Se  Se14  1  0.750000  0.088528  0.317544  1
  Se  Se15  1  0.250000  0.911472  0.682456  1
  Se  Se16  1  0.250000  0.760755  0.396445  1
  Se  Se17  1  0.750000  0.239245  0.603555  1
  Se  Se18  1  0.250000  0.260755  0.103555  1
  Se  Se19  1  0.750000  0.739245  0.896445  1
