# generated using pymatgen
data_LiMn3(BO3)3
_symmetry_space_group_name_H-M   'P 1'
_cell_length_a   5.33488366
_cell_length_b   5.78512772
_cell_length_c   12.25832741
_cell_angle_alpha   86.87116937
_cell_angle_beta   79.57211036
_cell_angle_gamma   88.52120085
_symmetry_Int_Tables_number   1
_chemical_formula_structural   LiMn3(BO3)3
_chemical_formula_sum   'Li2 Mn6 B6 O18'
_cell_volume   371.47636404
_cell_formula_units_Z   2
loop_
 _symmetry_equiv_pos_site_id
 _symmetry_equiv_pos_as_xyz
  1  'x, y, z'
loop_
 _atom_site_type_symbol
 _atom_site_label
 _atom_site_symmetry_multiplicity
 _atom_site_fract_x
 _atom_site_fract_y
 _atom_site_fract_z
 _atom_site_occupancy
  Li  Li0  1  0.574825  0.188857  0.516773  1
  Li  Li1  1  0.236782  0.856442  0.181754  1
  Mn  Mn2  1  0.664113  0.035286  0.284829  1
  Mn  Mn3  1  0.682536  0.308142  0.049678  1
  Mn  Mn4  1  0.998056  0.365133  0.627727  1
  Mn  Mn5  1  0.999352  0.636757  0.392900  1
  Mn  Mn6  1  0.310926  0.679777  0.945339  1
  Mn  Mn7  1  0.334769  0.959532  0.717924  1
  B  B8  1  0.127684  0.143803  0.391563  1
  B  B9  1  0.202427  0.185602  0.942453  1
  B  B10  1  0.468813  0.466152  0.723582  1
  B  B11  1  0.538231  0.538084  0.270596  1
  B  B12  1  0.795928  0.804759  0.062482  1
  B  B13  1  0.873061  0.866352  0.608967  1
  O  O14  1  0.991710  0.027984  0.663072  1
  O  O15  1  0.350226  0.004609  0.889893  1
  O  O16  1  0.380963  0.132698  0.400568  1
  O  O17  1  0.950387  0.202096  0.938469  1
  O  O18  1  0.956005  0.285720  0.459298  1
  O  O19  1  0.369340  0.330275  0.651098  1
  O  O20  1  0.328135  0.348389  0.992340  1
  O  O21  1  0.683903  0.352482  0.219273  1
  O  O22  1  0.716180  0.453143  0.734995  1
  O  O23  1  0.291202  0.570075  0.263461  1
  O  O24  1  0.302408  0.613973  0.790322  1
  O  O25  1  0.672644  0.642649  0.012280  1
  O  O26  1  0.673421  0.697472  0.319306  1
  O  O27  1  0.028460  0.682549  0.562157  1
  O  O28  1  0.047871  0.790864  0.069610  1
  O  O29  1  0.629740  0.893198  0.592325  1
  O  O30  1  0.633664  0.979910  0.116159  1
  O  O31  1  0.033891  0.004445  0.318984  1
