# generated using pymatgen
data_Li3V2Cr2O8
_symmetry_space_group_name_H-M   'P 1'
_cell_length_a   5.87248895
_cell_length_b   5.95013392
_cell_length_c   5.96038194
_cell_angle_alpha   90.90698842
_cell_angle_beta   119.47787790
_cell_angle_gamma   119.13504411
_symmetry_Int_Tables_number   1
_chemical_formula_structural   Li3V2Cr2O8
_chemical_formula_sum   'Li3 V2 Cr2 O8'
_cell_volume   149.16606582
_cell_formula_units_Z   1
loop_
 _symmetry_equiv_pos_site_id
 _symmetry_equiv_pos_as_xyz
  1  'x, y, z'
loop_
 _atom_site_type_symbol
 _atom_site_label
 _atom_site_symmetry_multiplicity
 _atom_site_fract_x
 _atom_site_fract_y
 _atom_site_fract_z
 _atom_site_occupancy
  Li  Li0  1  0.500000  0.000000  0.000000  1
  Li  Li1  1  0.000000  0.000000  0.500000  1
  Li  Li2  1  0.000000  0.500000  0.500000  1
  V  V3  1  0.000000  0.500000  0.000000  1
  V  V4  1  0.500000  0.500000  0.500000  1
  Cr  Cr5  1  0.500000  0.500000  0.000000  1
  Cr  Cr6  1  0.000000  0.000000  0.000000  1
  O  O7  1  0.518602  0.733447  0.763767  1
  O  O8  1  0.462513  0.715352  0.229793  1
  O  O9  1  0.977073  0.737438  0.217952  1
  O  O10  1  0.998538  0.744217  0.767445  1
  O  O11  1  0.001462  0.255783  0.232555  1
  O  O12  1  0.022927  0.262562  0.782048  1
  O  O13  1  0.537487  0.284648  0.770207  1
  O  O14  1  0.481398  0.266553  0.236233  1
