# generated using pymatgen
data_Ca5(AlSb3)2
_symmetry_space_group_name_H-M   'P 1'
_cell_length_a   4.49905022
_cell_length_b   12.13205672
_cell_length_c   14.14357808
_cell_angle_alpha   90.00000000
_cell_angle_beta   90.00000000
_cell_angle_gamma   90.00000000
_symmetry_Int_Tables_number   1
_chemical_formula_structural   Ca5(AlSb3)2
_chemical_formula_sum   'Ca10 Al4 Sb12'
_cell_volume   771.99513830
_cell_formula_units_Z   2
loop_
 _symmetry_equiv_pos_site_id
 _symmetry_equiv_pos_as_xyz
  1  'x, y, z'
loop_
 _atom_site_type_symbol
 _atom_site_label
 _atom_site_symmetry_multiplicity
 _atom_site_fract_x
 _atom_site_fract_y
 _atom_site_fract_z
 _atom_site_occupancy
  Ca  Ca0  1  0.500000  0.092745  0.747315  1
  Ca  Ca1  1  0.500000  0.407255  0.247315  1
  Ca  Ca2  1  0.500000  0.326839  0.514144  1
  Ca  Ca3  1  0.500000  0.907255  0.252685  1
  Ca  Ca4  1  0.500000  0.500000  0.000000  1
  Ca  Ca5  1  0.500000  0.000000  0.500000  1
  Ca  Ca6  1  0.500000  0.173161  0.014144  1
  Ca  Ca7  1  0.500000  0.826839  0.985856  1
  Ca  Ca8  1  0.500000  0.673161  0.485856  1
  Ca  Ca9  1  0.500000  0.592745  0.752685  1
  Al  Al10  1  0.000000  0.168564  0.211312  1
  Al  Al11  1  0.000000  0.831436  0.788688  1
  Al  Al12  1  0.000000  0.668564  0.288688  1
  Al  Al13  1  0.000000  0.331436  0.711312  1
  Sb  Sb14  1  0.000000  0.843906  0.406837  1
  Sb  Sb15  1  0.000000  0.156094  0.593163  1
  Sb  Sb16  1  0.000000  0.656094  0.906837  1
  Sb  Sb17  1  0.000000  0.343906  0.093163  1
  Sb  Sb18  1  0.500000  0.338851  0.821530  1
  Sb  Sb19  1  0.500000  0.661149  0.178470  1
  Sb  Sb20  1  0.500000  0.838851  0.678470  1
  Sb  Sb21  1  0.500000  0.161149  0.321530  1
  Sb  Sb22  1  0.000000  0.525286  0.600228  1
  Sb  Sb23  1  0.000000  0.474714  0.399772  1
  Sb  Sb24  1  0.000000  0.025286  0.899772  1
  Sb  Sb25  1  0.000000  0.974714  0.100228  1
