# generated using pymatgen
data_Na6Cr2B4SO16
_symmetry_space_group_name_H-M   'P 1'
_cell_length_a   9.93031792
_cell_length_b   9.93031792
_cell_length_c   9.93031792
_cell_angle_alpha   60.00000000
_cell_angle_beta   60.00000000
_cell_angle_gamma   60.00000000
_symmetry_Int_Tables_number   1
_chemical_formula_structural   Na6Cr2B4SO16
_chemical_formula_sum   'Na12 Cr4 B8 S2 O32'
_cell_volume   692.42774272
_cell_formula_units_Z   2
loop_
 _symmetry_equiv_pos_site_id
 _symmetry_equiv_pos_as_xyz
  1  'x, y, z'
loop_
 _atom_site_type_symbol
 _atom_site_label
 _atom_site_symmetry_multiplicity
 _atom_site_fract_x
 _atom_site_fract_y
 _atom_site_fract_z
 _atom_site_occupancy
  Na  Na0  1  0.531333  0.968667  0.968667  1
  Na  Na1  1  0.718667  0.281333  0.718667  1
  Na  Na2  1  0.531333  0.531333  0.968667  1
  Na  Na3  1  0.968667  0.968667  0.531333  1
  Na  Na4  1  0.281333  0.718667  0.281333  1
  Na  Na5  1  0.281333  0.718667  0.718667  1
  Na  Na6  1  0.968667  0.531333  0.968667  1
  Na  Na7  1  0.968667  0.531333  0.531333  1
  Na  Na8  1  0.718667  0.718667  0.281333  1
  Na  Na9  1  0.281333  0.281333  0.718667  1
  Na  Na10  1  0.531333  0.968667  0.531333  1
  Na  Na11  1  0.718667  0.281333  0.281333  1
  Cr  Cr12  1  0.125000  0.625000  0.125000  1
  Cr  Cr13  1  0.125000  0.125000  0.125000  1
  Cr  Cr14  1  0.625000  0.125000  0.125000  1
  Cr  Cr15  1  0.125000  0.125000  0.625000  1
  B  B16  1  0.336887  0.989338  0.336887  1
  B  B17  1  0.336887  0.336887  0.336887  1
  B  B18  1  0.336887  0.336887  0.989338  1
  B  B19  1  0.989338  0.336887  0.336887  1
  B  B20  1  0.260662  0.913113  0.913113  1
  B  B21  1  0.913113  0.913113  0.260662  1
  B  B22  1  0.913113  0.913113  0.913113  1
  B  B23  1  0.913113  0.260662  0.913113  1
  S  S24  1  0.750000  0.750000  0.750000  1
  S  S25  1  0.500000  0.500000  0.500000  1
  O  O26  1  0.758267  0.028991  0.945877  1
  O  O27  1  0.945877  0.266865  0.758267  1
  O  O28  1  0.491733  0.983135  0.221009  1
  O  O29  1  0.221009  0.983135  0.304123  1
  O  O30  1  0.934746  0.688418  0.688418  1
  O  O31  1  0.491733  0.304123  0.983135  1
  O  O32  1  0.304123  0.221009  0.983135  1
  O  O33  1  0.688418  0.688418  0.934746  1
  O  O34  1  0.688418  0.688418  0.688418  1
  O  O35  1  0.221009  0.304123  0.491733  1
  O  O36  1  0.304123  0.491733  0.221009  1
  O  O37  1  0.688418  0.934746  0.688418  1
  O  O38  1  0.983135  0.221009  0.491733  1
  O  O39  1  0.221009  0.491733  0.983135  1
  O  O40  1  0.983135  0.304123  0.221009  1
  O  O41  1  0.266865  0.758267  0.945877  1
  O  O42  1  0.983135  0.491733  0.304123  1
  O  O43  1  0.266865  0.945877  0.028991  1
  O  O44  1  0.028991  0.758267  0.266865  1
  O  O45  1  0.266865  0.028991  0.758267  1
  O  O46  1  0.561582  0.315254  0.561582  1
  O  O47  1  0.945877  0.758267  0.028991  1
  O  O48  1  0.028991  0.945877  0.758267  1
  O  O49  1  0.561582  0.561582  0.315254  1
  O  O50  1  0.561582  0.561582  0.561582  1
  O  O51  1  0.945877  0.028991  0.266865  1
  O  O52  1  0.758267  0.945877  0.266865  1
  O  O53  1  0.315254  0.561582  0.561582  1
  O  O54  1  0.028991  0.266865  0.945877  1
  O  O55  1  0.758267  0.266865  0.028991  1
  O  O56  1  0.304123  0.983135  0.491733  1
  O  O57  1  0.491733  0.221009  0.304123  1
