# generated using pymatgen
data_Cd4P6SN12
_symmetry_space_group_name_H-M   'P 1'
_cell_length_a   7.41173734
_cell_length_b   7.41173734
_cell_length_c   7.41173734
_cell_angle_alpha   109.47122063
_cell_angle_beta   109.47122063
_cell_angle_gamma   109.47122063
_symmetry_Int_Tables_number   1
_chemical_formula_structural   Cd4P6SN12
_chemical_formula_sum   'Cd4 P6 S1 N12'
_cell_volume   313.42827340
_cell_formula_units_Z   1
loop_
 _symmetry_equiv_pos_site_id
 _symmetry_equiv_pos_as_xyz
  1  'x, y, z'
loop_
 _atom_site_type_symbol
 _atom_site_label
 _atom_site_symmetry_multiplicity
 _atom_site_fract_x
 _atom_site_fract_y
 _atom_site_fract_z
 _atom_site_occupancy
  Cd  Cd0  1  1.000000  0.663799  1.000000  1
  Cd  Cd1  1  0.663799  1.000000  0.000000  1
  Cd  Cd2  1  1.000000  1.000000  0.663799  1
  Cd  Cd3  1  0.336201  0.336201  0.336201  1
  P  P4  1  0.500000  0.250000  0.750000  1
  P  P5  1  0.500000  0.750000  0.250000  1
  P  P6  1  0.250000  0.750000  0.500000  1
  P  P7  1  0.750000  0.250000  0.500000  1
  P  P8  1  0.250000  0.500000  0.750000  1
  P  P9  1  0.750000  0.500000  0.250000  1
  S  S10  1  0.000000  0.000000  0.000000  1
  N  N11  1  0.285168  0.710194  0.285168  1
  N  N12  1  0.285168  0.285168  0.710194  1
  N  N13  1  0.574974  0.289806  0.574974  1
  N  N14  1  0.289806  0.574974  0.574974  1
  N  N15  1  1.000000  0.425026  0.714832  1
  N  N16  1  0.425026  1.000000  0.714832  1
  N  N17  1  0.574974  0.574974  0.289806  1
  N  N18  1  0.425026  0.714832  0.000000  1
  N  N19  1  0.714832  0.425026  0.000000  1
  N  N20  1  1.000000  0.714832  0.425026  1
  N  N21  1  0.710194  0.285168  0.285168  1
  N  N22  1  0.714832  1.000000  0.425026  1
