# generated using pymatgen
data_Mn12O7F17
_symmetry_space_group_name_H-M   'P 1'
_cell_length_a   4.80268067
_cell_length_b   5.80475100
_cell_length_c   15.89755770
_cell_angle_alpha   89.53750114
_cell_angle_beta   89.48066048
_cell_angle_gamma   86.08411695
_symmetry_Int_Tables_number   1
_chemical_formula_structural   Mn12O7F17
_chemical_formula_sum   'Mn12 O7 F17'
_cell_volume   442.13272479
_cell_formula_units_Z   1
loop_
 _symmetry_equiv_pos_site_id
 _symmetry_equiv_pos_as_xyz
  1  'x, y, z'
loop_
 _atom_site_type_symbol
 _atom_site_label
 _atom_site_symmetry_multiplicity
 _atom_site_fract_x
 _atom_site_fract_y
 _atom_site_fract_z
 _atom_site_occupancy
  Mn  Mn0  1  0.996410  0.846609  0.414043  1
  Mn  Mn1  1  0.981185  0.173074  0.251680  1
  Mn  Mn2  1  0.995901  0.829599  0.076395  1
  Mn  Mn3  1  0.000550  0.845196  0.748413  1
  Mn  Mn4  1  0.986565  0.171823  0.572162  1
  Mn  Mn5  1  0.971915  0.143243  0.910151  1
  Mn  Mn6  1  0.484001  0.665678  0.593506  1
  Mn  Mn7  1  0.516177  0.685144  0.926966  1
  Mn  Mn8  1  0.482121  0.644352  0.260630  1
  Mn  Mn9  1  0.478380  0.348445  0.079447  1
  Mn  Mn10  1  0.515735  0.349317  0.413050  1
  Mn  Mn11  1  0.488865  0.340466  0.754358  1
  O  O12  1  0.787133  0.887876  0.972264  1
  O  O13  1  0.778765  0.113250  0.462078  1
  O  O14  1  0.775420  0.108192  0.800175  1
  O  O15  1  0.707183  0.395354  0.308310  1
  O  O16  1  0.288424  0.630329  0.027452  1
  O  O17  1  0.268427  0.609442  0.364663  1
  O  O18  1  0.267810  0.610345  0.702840  1
  F  F19  1  0.772216  0.887545  0.304236  1
  F  F20  1  0.785223  0.884375  0.640320  1
  F  F21  1  0.763115  0.103771  0.135269  1
  F  F22  1  0.719913  0.612291  0.151325  1
  F  F23  1  0.750590  0.619511  0.483504  1
  F  F24  1  0.728199  0.383969  0.646994  1
  F  F25  1  0.734429  0.612473  0.816135  1
  F  F26  1  0.748252  0.391046  0.979414  1
  F  F27  1  0.252043  0.383904  0.189919  1
  F  F28  1  0.299837  0.379900  0.522647  1
  F  F29  1  0.275237  0.375436  0.865740  1
  F  F30  1  0.225657  0.875262  0.192740  1
  F  F31  1  0.229930  0.883411  0.521848  1
  F  F32  1  0.238233  0.098344  0.356621  1
  F  F33  1  0.224874  0.119938  0.019321  1
  F  F34  1  0.240371  0.879300  0.850921  1
  F  F35  1  0.240910  0.111788  0.684459  1
