# generated using pymatgen
data_Li3Fe4(BO3)4
_symmetry_space_group_name_H-M   'P 1'
_cell_length_a   5.25652256
_cell_length_b   9.09491838
_cell_length_c   10.20398881
_cell_angle_alpha   89.97700976
_cell_angle_beta   88.50727892
_cell_angle_gamma   89.62537440
_symmetry_Int_Tables_number   1
_chemical_formula_structural   Li3Fe4(BO3)4
_chemical_formula_sum   'Li6 Fe8 B8 O24'
_cell_volume   487.65267543
_cell_formula_units_Z   2
loop_
 _symmetry_equiv_pos_site_id
 _symmetry_equiv_pos_as_xyz
  1  'x, y, z'
loop_
 _atom_site_type_symbol
 _atom_site_label
 _atom_site_symmetry_multiplicity
 _atom_site_fract_x
 _atom_site_fract_y
 _atom_site_fract_z
 _atom_site_occupancy
  Li  Li0  1  0.653588  0.991107  0.919037  1
  Li  Li1  1  0.163737  0.499436  0.903116  1
  Li  Li2  1  0.834869  0.508711  0.660646  1
  Li  Li3  1  0.845886  0.485909  0.168604  1
  Li  Li4  1  0.332526  0.011448  0.656625  1
  Li  Li5  1  0.655859  0.002159  0.408173  1
  Fe  Fe6  1  0.163355  0.837842  0.880327  1
  Fe  Fe7  1  0.837917  0.839975  0.630685  1
  Fe  Fe8  1  0.341867  0.672572  0.137164  1
  Fe  Fe9  1  0.659955  0.657483  0.386917  1
  Fe  Fe10  1  0.330927  0.343122  0.627806  1
  Fe  Fe11  1  0.162923  0.170699  0.374577  1
  Fe  Fe12  1  0.658179  0.334227  0.881125  1
  Fe  Fe13  1  0.841780  0.152601  0.129039  1
  B  B14  1  0.158013  0.842379  0.374456  1
  B  B15  1  0.333920  0.669301  0.631947  1
  B  B16  1  0.831379  0.822194  0.125268  1
  B  B17  1  0.666260  0.667660  0.879378  1
  B  B18  1  0.340036  0.342420  0.132634  1
  B  B19  1  0.663651  0.323120  0.374883  1
  B  B20  1  0.162125  0.166262  0.877125  1
  B  B21  1  0.828221  0.170421  0.622963  1
  O  O22  1  0.291302  0.973392  0.383322  1
  O  O23  1  0.087886  0.812947  0.088395  1
  O  O24  1  0.701828  0.951783  0.117409  1
  O  O25  1  0.220681  0.805431  0.663500  1
  O  O26  1  0.289078  0.717249  0.329505  1
  O  O27  1  0.776950  0.802102  0.845345  1
  O  O28  1  0.901015  0.836940  0.411424  1
  O  O29  1  0.413300  0.665383  0.927986  1
  O  O30  1  0.191588  0.544064  0.639440  1
  O  O31  1  0.593818  0.662807  0.595686  1
  O  O32  1  0.708842  0.690205  0.162843  1
  O  O33  1  0.206343  0.475134  0.117755  1
  O  O34  1  0.803570  0.538271  0.864477  1
  O  O35  1  0.274680  0.302101  0.850269  1
  O  O36  1  0.413897  0.311385  0.421588  1
  O  O37  1  0.779709  0.453419  0.356706  1
  O  O38  1  0.598460  0.335274  0.098297  1
  O  O39  1  0.087750  0.167446  0.584500  1
  O  O40  1  0.206823  0.220609  0.179694  1
  O  O41  1  0.715633  0.301340  0.665469  1
  O  O42  1  0.795196  0.188676  0.346803  1
  O  O43  1  0.306938  0.039135  0.859477  1
  O  O44  1  0.906563  0.158702  0.917253  1
  O  O45  1  0.687000  0.042681  0.613409  1
