# generated using pymatgen
data_Li2Mn3(BO3)3
_symmetry_space_group_name_H-M   'P 1'
_cell_length_a   5.27852081
_cell_length_b   5.85698669
_cell_length_c   12.42266866
_cell_angle_alpha   92.09053775
_cell_angle_beta   101.91764156
_cell_angle_gamma   90.34143824
_symmetry_Int_Tables_number   1
_chemical_formula_structural   Li2Mn3(BO3)3
_chemical_formula_sum   'Li4 Mn6 B6 O18'
_cell_volume   375.49788537
_cell_formula_units_Z   2
loop_
 _symmetry_equiv_pos_site_id
 _symmetry_equiv_pos_as_xyz
  1  'x, y, z'
loop_
 _atom_site_type_symbol
 _atom_site_label
 _atom_site_symmetry_multiplicity
 _atom_site_fract_x
 _atom_site_fract_y
 _atom_site_fract_z
 _atom_site_occupancy
  Li  Li0  1  0.261398  0.982168  0.848327  1
  Li  Li1  1  0.738602  0.017832  0.151673  1
  Li  Li2  1  0.598219  0.295403  0.515923  1
  Li  Li3  1  0.401781  0.704597  0.484077  1
  Mn  Mn4  1  0.877816  0.866032  0.381994  1
  Mn  Mn5  1  0.122184  0.133968  0.618006  1
  Mn  Mn6  1  0.204546  0.208511  0.046853  1
  Mn  Mn7  1  0.453023  0.474988  0.273213  1
  Mn  Mn8  1  0.546977  0.525012  0.726787  1
  Mn  Mn9  1  0.795454  0.791489  0.953147  1
  B  B10  1  0.308258  0.981645  0.271313  1
  B  B11  1  0.691742  0.018355  0.728687  1
  B  B12  1  0.648248  0.299965  0.943981  1
  B  B13  1  0.027003  0.367166  0.400795  1
  B  B14  1  0.972997  0.632834  0.599205  1
  B  B15  1  0.351752  0.700035  0.056019  1
  O  O16  1  0.190587  0.851397  0.988109  1
  O  O17  1  0.574476  0.877980  0.794337  1
  O  O18  1  0.045282  0.982068  0.261127  1
  O  O19  1  0.954718  0.017932  0.738873  1
  O  O20  1  0.425524  0.122020  0.205663  1
  O  O21  1  0.809413  0.148603  0.011891  1
  O  O22  1  0.533847  0.160420  0.655200  1
  O  O23  1  0.915240  0.197136  0.455974  1
  O  O24  1  0.385690  0.274379  0.924863  1
  O  O25  1  0.290085  0.388815  0.412224  1
  O  O26  1  0.756917  0.466530  0.889127  1
  O  O27  1  0.145676  0.478763  0.656050  1
  O  O28  1  0.854324  0.521237  0.343950  1
  O  O29  1  0.243083  0.533470  0.110873  1
  O  O30  1  0.709915  0.611185  0.587776  1
  O  O31  1  0.614310  0.725621  0.075137  1
  O  O32  1  0.084760  0.802864  0.544026  1
  O  O33  1  0.466153  0.839580  0.344800  1
