# generated using pymatgen
data_Ca5Al2(SiN4)2
_symmetry_space_group_name_H-M   'P 1'
_cell_length_a   6.17776641
_cell_length_b   9.29502987
_cell_length_c   15.56467290
_cell_angle_alpha   90.00000000
_cell_angle_beta   90.00000000
_cell_angle_gamma   90.00000000
_symmetry_Int_Tables_number   1
_chemical_formula_structural   Ca5Al2(SiN4)2
_chemical_formula_sum   'Ca20 Al8 Si8 N32'
_cell_volume   893.76279243
_cell_formula_units_Z   4
loop_
 _symmetry_equiv_pos_site_id
 _symmetry_equiv_pos_as_xyz
  1  'x, y, z'
loop_
 _atom_site_type_symbol
 _atom_site_label
 _atom_site_symmetry_multiplicity
 _atom_site_fract_x
 _atom_site_fract_y
 _atom_site_fract_z
 _atom_site_occupancy
  Ca  Ca0  1  0.828878  0.698217  0.104011  1
  Ca  Ca1  1  0.671122  0.801783  0.604011  1
  Ca  Ca2  1  0.671122  0.198217  0.895989  1
  Ca  Ca3  1  0.828878  0.301783  0.395989  1
  Ca  Ca4  1  0.171122  0.301783  0.895989  1
  Ca  Ca5  1  0.328878  0.198217  0.395989  1
  Ca  Ca6  1  0.328878  0.801783  0.104011  1
  Ca  Ca7  1  0.171122  0.698217  0.604011  1
  Ca  Ca8  1  0.634713  0.000000  0.250000  1
  Ca  Ca9  1  0.865287  0.500000  0.750000  1
  Ca  Ca10  1  0.365287  0.000000  0.750000  1
  Ca  Ca11  1  0.134713  0.500000  0.250000  1
  Ca  Ca12  1  0.874008  0.640946  0.425311  1
  Ca  Ca13  1  0.625992  0.859054  0.925311  1
  Ca  Ca14  1  0.625992  0.140946  0.574689  1
  Ca  Ca15  1  0.874008  0.359054  0.074689  1
  Ca  Ca16  1  0.125992  0.359054  0.574689  1
  Ca  Ca17  1  0.374008  0.140946  0.074689  1
  Ca  Ca18  1  0.374008  0.859054  0.425311  1
  Ca  Ca19  1  0.125992  0.640946  0.925311  1
  Al  Al20  1  0.588588  0.645199  0.263477  1
  Al  Al21  1  0.911412  0.854801  0.763477  1
  Al  Al22  1  0.911412  0.145199  0.736523  1
  Al  Al23  1  0.588588  0.354801  0.236523  1
  Al  Al24  1  0.411412  0.354801  0.736523  1
  Al  Al25  1  0.088588  0.145199  0.236523  1
  Al  Al26  1  0.088588  0.854801  0.263477  1
  Al  Al27  1  0.411412  0.645199  0.763477  1
  Si  Si28  1  0.905308  0.993594  0.070550  1
  Si  Si29  1  0.594692  0.506406  0.570550  1
  Si  Si30  1  0.594692  0.493594  0.929450  1
  Si  Si31  1  0.905308  0.006406  0.429450  1
  Si  Si32  1  0.094692  0.006406  0.929450  1
  Si  Si33  1  0.405308  0.493594  0.429450  1
  Si  Si34  1  0.405308  0.506406  0.070550  1
  Si  Si35  1  0.094692  0.993594  0.570550  1
  N  N36  1  0.639106  0.953043  0.090563  1
  N  N37  1  0.860894  0.546957  0.590563  1
  N  N38  1  0.860894  0.453043  0.909437  1
  N  N39  1  0.639106  0.046957  0.409437  1
  N  N40  1  0.360894  0.046957  0.909437  1
  N  N41  1  0.139106  0.453043  0.409437  1
  N  N42  1  0.139106  0.546957  0.090563  1
  N  N43  1  0.360894  0.953043  0.590563  1
  N  N44  1  0.986409  0.859070  0.494574  1
  N  N45  1  0.513591  0.640930  0.994574  1
  N  N46  1  0.513591  0.359070  0.505426  1
  N  N47  1  0.986409  0.140930  0.005426  1
  N  N48  1  0.013591  0.140930  0.505426  1
  N  N49  1  0.486409  0.359070  0.005426  1
  N  N50  1  0.486409  0.640930  0.494574  1
  N  N51  1  0.013591  0.859070  0.994574  1
  N  N52  1  0.865384  0.722314  0.268014  1
  N  N53  1  0.634616  0.777686  0.768014  1
  N  N54  1  0.634616  0.222314  0.731986  1
  N  N55  1  0.865384  0.277686  0.231986  1
  N  N56  1  0.134616  0.277686  0.731986  1
  N  N57  1  0.365384  0.222314  0.231986  1
  N  N58  1  0.365384  0.777686  0.268014  1
  N  N59  1  0.134616  0.722314  0.768014  1
  N  N60  1  0.572063  0.519569  0.161408  1
  N  N61  1  0.927937  0.980431  0.661408  1
  N  N62  1  0.927937  0.019569  0.838592  1
  N  N63  1  0.572063  0.480431  0.338592  1
  N  N64  1  0.427937  0.480431  0.838592  1
  N  N65  1  0.072063  0.019569  0.338592  1
  N  N66  1  0.072063  0.980431  0.161408  1
  N  N67  1  0.427937  0.519569  0.661408  1
