# generated using pymatgen
data_Cs2CoSe2
_symmetry_space_group_name_H-M   'P 1'
_cell_length_a   8.80683646
_cell_length_b   8.80683646
_cell_length_c   8.80683646
_cell_angle_alpha   135.66702843
_cell_angle_beta   129.17232466
_cell_angle_gamma   69.69939138
_symmetry_Int_Tables_number   1
_chemical_formula_structural   Cs2CoSe2
_chemical_formula_sum   'Cs4 Co2 Se4'
_cell_volume   363.05973767
_cell_formula_units_Z   2
loop_
 _symmetry_equiv_pos_site_id
 _symmetry_equiv_pos_as_xyz
  1  'x, y, z'
loop_
 _atom_site_type_symbol
 _atom_site_label
 _atom_site_symmetry_multiplicity
 _atom_site_fract_x
 _atom_site_fract_y
 _atom_site_fract_z
 _atom_site_occupancy
  Cs  Cs0  1  0.818978  0.645843  0.173136  1
  Cs  Cs1  1  0.181022  0.354157  0.826864  1
  Cs  Cs2  1  0.527293  0.854157  0.673136  1
  Cs  Cs3  1  0.472707  0.145843  0.326864  1
  Co  Co4  1  0.000000  0.750000  0.750000  1
  Co  Co5  1  0.000000  0.250000  0.250000  1
  Se  Se6  1  0.255236  0.591292  0.663944  1
  Se  Se7  1  0.072652  0.908708  0.163944  1
  Se  Se8  1  0.927348  0.091292  0.836056  1
  Se  Se9  1  0.744764  0.408708  0.336056  1
