# generated using pymatgen
data_LiFeP3H8O13
_symmetry_space_group_name_H-M   'P 1'
_cell_length_a   7.59705532
_cell_length_b   8.62751887
_cell_length_c   9.60052138
_cell_angle_alpha   100.99908523
_cell_angle_beta   91.12552192
_cell_angle_gamma   107.11618180
_symmetry_Int_Tables_number   1
_chemical_formula_structural   LiFeP3H8O13
_chemical_formula_sum   'Li2 Fe2 P6 H16 O26'
_cell_volume   588.40724444
_cell_formula_units_Z   2
loop_
 _symmetry_equiv_pos_site_id
 _symmetry_equiv_pos_as_xyz
  1  'x, y, z'
loop_
 _atom_site_type_symbol
 _atom_site_label
 _atom_site_symmetry_multiplicity
 _atom_site_fract_x
 _atom_site_fract_y
 _atom_site_fract_z
 _atom_site_occupancy
  Li  Li0  1  0.285971  0.598241  0.691204  1
  Li  Li1  1  0.714029  0.401759  0.308796  1
  Fe  Fe2  1  0.000000  0.500000  0.000000  1
  Fe  Fe3  1  0.500000  0.000000  0.500000  1
  P  P4  1  0.284362  0.275153  0.939884  1
  P  P5  1  0.802252  0.644506  0.757328  1
  P  P6  1  0.989924  0.001597  0.779733  1
  P  P7  1  0.010076  0.998403  0.220267  1
  P  P8  1  0.197748  0.355494  0.242672  1
  P  P9  1  0.715638  0.724847  0.060116  1
  H  H10  1  0.798794  0.187369  0.947721  1
  H  H11  1  0.661453  0.295774  0.964070  1
  H  H12  1  0.466391  0.094711  0.770009  1
  H  H13  1  0.809944  0.311044  0.632296  1
  H  H14  1  0.611133  0.994704  0.753753  1
  H  H15  1  0.242226  0.131584  0.581175  1
  H  H16  1  0.886455  0.175020  0.544967  1
  H  H17  1  0.344566  0.247178  0.474422  1
  H  H18  1  0.655434  0.752822  0.525578  1
  H  H19  1  0.113545  0.824980  0.455033  1
  H  H20  1  0.757774  0.868416  0.418825  1
  H  H21  1  0.388867  0.005296  0.246247  1
  H  H22  1  0.190056  0.688956  0.367704  1
  H  H23  1  0.533609  0.905289  0.229991  1
  H  H24  1  0.338547  0.704226  0.035930  1
  H  H25  1  0.201206  0.812631  0.052279  1
  O  O26  1  0.780563  0.289829  0.006848  1
  O  O27  1  0.148371  0.086570  0.910736  1
  O  O28  1  0.183405  0.384642  0.890951  1
  O  O29  1  0.465728  0.276237  0.881562  1
  O  O30  1  0.812819  0.031184  0.824725  1
  O  O31  1  0.679562  0.685448  0.888553  1
  O  O32  1  0.886727  0.511023  0.777665  1
  O  O33  1  0.058668  0.045436  0.643271  1
  O  O34  1  0.978195  0.810119  0.777691  1
  O  O35  1  0.485833  0.991220  0.714888  1
  O  O36  1  0.679713  0.619904  0.625326  1
  O  O37  1  0.789619  0.229182  0.541269  1
  O  O38  1  0.363399  0.177900  0.541451  1
  O  O39  1  0.636601  0.822100  0.458549  1
  O  O40  1  0.210381  0.770818  0.458731  1
  O  O41  1  0.320287  0.380096  0.374674  1
  O  O42  1  0.514167  0.008780  0.285112  1
  O  O43  1  0.021805  0.189881  0.222309  1
  O  O44  1  0.941332  0.954564  0.356729  1
  O  O45  1  0.113273  0.488977  0.222335  1
  O  O46  1  0.320438  0.314552  0.111447  1
  O  O47  1  0.187181  0.968816  0.175275  1
  O  O48  1  0.534272  0.723763  0.118438  1
  O  O49  1  0.816595  0.615358  0.109049  1
  O  O50  1  0.851629  0.913430  0.089264  1
  O  O51  1  0.219437  0.710171  0.993152  1
