# generated using pymatgen
data_Ce3MnAlS7
_symmetry_space_group_name_H-M   'P 1'
_cell_length_a   10.05370616
_cell_length_b   10.05370616
_cell_length_c   5.99889888
_cell_angle_alpha   90.00000000
_cell_angle_beta   90.00000000
_cell_angle_gamma   120.00000000
_symmetry_Int_Tables_number   1
_chemical_formula_structural   Ce3MnAlS7
_chemical_formula_sum   'Ce6 Mn2 Al2 S14'
_cell_volume   525.11515054
_cell_formula_units_Z   2
loop_
 _symmetry_equiv_pos_site_id
 _symmetry_equiv_pos_as_xyz
  1  'x, y, z'
loop_
 _atom_site_type_symbol
 _atom_site_label
 _atom_site_symmetry_multiplicity
 _atom_site_fract_x
 _atom_site_fract_y
 _atom_site_fract_z
 _atom_site_occupancy
  Ce  Ce0  1  0.768343  0.140781  0.243945  1
  Ce  Ce1  1  0.231657  0.859219  0.743945  1
  Ce  Ce2  1  0.859219  0.627562  0.243945  1
  Ce  Ce3  1  0.372438  0.231657  0.243945  1
  Ce  Ce4  1  0.627562  0.768343  0.743945  1
  Ce  Ce5  1  0.140781  0.372438  0.743945  1
  Mn  Mn6  1  0.000000  0.000000  0.021572  1
  Mn  Mn7  1  0.000000  0.000000  0.521572  1
  Al  Al8  1  0.666667  0.333333  0.662645  1
  Al  Al9  1  0.333333  0.666667  0.162645  1
  S  S10  1  0.666667  0.333333  0.034914  1
  S  S11  1  0.333333  0.666667  0.534914  1
  S  S12  1  0.853793  0.092295  0.788756  1
  S  S13  1  0.146207  0.907705  0.288756  1
  S  S14  1  0.907705  0.761498  0.788756  1
  S  S15  1  0.238502  0.146207  0.788756  1
  S  S16  1  0.761498  0.853793  0.288756  1
  S  S17  1  0.092295  0.238502  0.288756  1
  S  S18  1  0.901073  0.420837  0.516498  1
  S  S19  1  0.098927  0.579163  0.016498  1
  S  S20  1  0.579163  0.480236  0.516498  1
  S  S21  1  0.519764  0.098927  0.516498  1
  S  S22  1  0.480236  0.901073  0.016498  1
  S  S23  1  0.420837  0.519764  0.016498  1
