# generated using pymatgen
data_YBr2
_symmetry_space_group_name_H-M   'P 1'
_cell_length_a   7.29537863
_cell_length_b   7.29537863
_cell_length_c   3.68840928
_cell_angle_alpha   90.00000000
_cell_angle_beta   90.00000000
_cell_angle_gamma   90.00000000
_symmetry_Int_Tables_number   1
_chemical_formula_structural   YBr2
_chemical_formula_sum   'Y2 Br4'
_cell_volume   196.30654495
_cell_formula_units_Z   2
loop_
 _symmetry_equiv_pos_site_id
 _symmetry_equiv_pos_as_xyz
  1  'x, y, z'
loop_
 _atom_site_type_symbol
 _atom_site_label
 _atom_site_symmetry_multiplicity
 _atom_site_fract_x
 _atom_site_fract_y
 _atom_site_fract_z
 _atom_site_occupancy
  Y  Y0  1  0.000000  0.000000  0.000000  1
  Y  Y1  1  0.500000  0.500000  0.500000  1
  Br  Br2  1  0.282787  0.282787  0.000000  1
  Br  Br3  1  0.717213  0.717213  0.000000  1
  Br  Br4  1  0.217213  0.782787  0.500000  1
  Br  Br5  1  0.782787  0.217213  0.500000  1
