# generated using pymatgen
data_Li4Mn3Cr2Cu3O16
_symmetry_space_group_name_H-M   'P 1'
_cell_length_a   5.87497302
_cell_length_b   5.87497302
_cell_length_c   9.43740630
_cell_angle_alpha   88.65048239
_cell_angle_beta   91.34951761
_cell_angle_gamma   120.78869760
_symmetry_Int_Tables_number   1
_chemical_formula_structural   Li4Mn3Cr2Cu3O16
_chemical_formula_sum   'Li4 Mn3 Cr2 Cu3 O16'
_cell_volume   279.72350619
_cell_formula_units_Z   1
loop_
 _symmetry_equiv_pos_site_id
 _symmetry_equiv_pos_as_xyz
  1  'x, y, z'
loop_
 _atom_site_type_symbol
 _atom_site_label
 _atom_site_symmetry_multiplicity
 _atom_site_fract_x
 _atom_site_fract_y
 _atom_site_fract_z
 _atom_site_occupancy
  Li  Li0  1  0.667350  0.332650  0.104515  1
  Li  Li1  1  0.001086  0.998914  0.001632  1
  Li  Li2  1  0.002728  0.997272  0.509757  1
  Li  Li3  1  0.336351  0.663649  0.603297  1
  Mn  Mn4  1  0.827451  0.172549  0.785589  1
  Mn  Mn5  1  0.662779  0.831091  0.284819  1
  Mn  Mn6  1  0.168909  0.337221  0.284819  1
  Cr  Cr7  1  0.667523  0.332477  0.510227  1
  Cr  Cr8  1  0.331300  0.668700  0.010023  1
  Cu  Cu9  1  0.828569  0.660650  0.786692  1
  Cu  Cu10  1  0.339350  0.171431  0.786692  1
  Cu  Cu11  1  0.168992  0.831008  0.285335  1
  O  O12  1  0.831391  0.678963  0.402602  1
  O  O13  1  0.521506  0.478494  0.654609  1
  O  O14  1  0.667996  0.332004  0.888902  1
  O  O15  1  0.996927  0.003073  0.699376  1
  O  O16  1  0.994969  0.005031  0.189454  1
  O  O17  1  0.321037  0.168609  0.402602  1
  O  O18  1  0.966101  0.471136  0.655598  1
  O  O19  1  0.528864  0.033899  0.655598  1
  O  O20  1  0.159942  0.840058  0.909061  1
  O  O21  1  0.839298  0.160702  0.395327  1
  O  O22  1  0.489607  0.960862  0.158893  1
  O  O23  1  0.039138  0.510393  0.158893  1
  O  O24  1  0.339916  0.660084  0.390765  1
  O  O25  1  0.667305  0.850877  0.906205  1
  O  O26  1  0.482634  0.517366  0.164507  1
  O  O27  1  0.149123  0.332695  0.906205  1
