# generated using pymatgen
data_NdAsPd
_symmetry_space_group_name_H-M   'P 1'
_cell_length_a   4.39118130
_cell_length_b   4.39118130
_cell_length_c   7.82285143
_cell_angle_alpha   90.00000000
_cell_angle_beta   90.00000000
_cell_angle_gamma   120.00000000
_symmetry_Int_Tables_number   1
_chemical_formula_structural   NdAsPd
_chemical_formula_sum   'Nd2 As2 Pd2'
_cell_volume   130.63466947
_cell_formula_units_Z   2
loop_
 _symmetry_equiv_pos_site_id
 _symmetry_equiv_pos_as_xyz
  1  'x, y, z'
loop_
 _atom_site_type_symbol
 _atom_site_label
 _atom_site_symmetry_multiplicity
 _atom_site_fract_x
 _atom_site_fract_y
 _atom_site_fract_z
 _atom_site_occupancy
  Nd  Nd0  1  0.000000  0.000000  0.499730  1
  Nd  Nd1  1  0.000000  0.000000  0.999730  1
  As  As2  1  0.666667  0.333333  0.263372  1
  As  As3  1  0.333333  0.666667  0.763372  1
  Pd  Pd4  1  0.333333  0.666667  0.236199  1
  Pd  Pd5  1  0.666667  0.333333  0.736199  1
