# generated using pymatgen
data_Li3FeO4
_symmetry_space_group_name_H-M   'P 1'
_cell_length_a   7.13424244
_cell_length_b   7.13424244
_cell_length_c   7.13424244
_cell_angle_alpha   109.47122063
_cell_angle_beta   109.47122063
_cell_angle_gamma   109.47122063
_symmetry_Int_Tables_number   1
_chemical_formula_structural   Li3FeO4
_chemical_formula_sum   'Li12 Fe4 O16'
_cell_volume   279.52567265
_cell_formula_units_Z   4
loop_
 _symmetry_equiv_pos_site_id
 _symmetry_equiv_pos_as_xyz
  1  'x, y, z'
loop_
 _atom_site_type_symbol
 _atom_site_label
 _atom_site_symmetry_multiplicity
 _atom_site_fract_x
 _atom_site_fract_y
 _atom_site_fract_z
 _atom_site_occupancy
  Li  Li0  1  0.254432  0.748670  0.748670  1
  Li  Li1  1  0.251330  1.000000  0.505762  1
  Li  Li2  1  0.000000  0.251330  0.505762  1
  Li  Li3  1  0.494238  0.745568  0.494238  1
  Li  Li4  1  0.505762  0.251330  0.000000  1
  Li  Li5  1  0.251330  0.505762  0.000000  1
  Li  Li6  1  0.494238  0.494238  0.745568  1
  Li  Li7  1  0.748670  0.748670  0.254432  1
  Li  Li8  1  0.505762  0.000000  0.251330  1
  Li  Li9  1  0.745568  0.494238  0.494238  1
  Li  Li10  1  0.748670  0.254432  0.748670  1
  Li  Li11  1  0.000000  0.505762  0.251330  1
  Fe  Fe12  1  1.000000  1.000000  0.735467  1
  Fe  Fe13  1  0.000000  0.735467  0.000000  1
  Fe  Fe14  1  0.264533  0.264533  0.264533  1
  Fe  Fe15  1  0.735467  0.000000  0.000000  1
  O  O16  1  1.000000  0.771767  0.525261  1
  O  O17  1  0.228233  0.228233  0.753494  1
  O  O18  1  0.228233  0.753494  0.228233  1
  O  O19  1  0.525261  0.771767  1.000000  1
  O  O20  1  0.246506  0.474739  0.474739  1
  O  O21  1  0.000000  0.000000  0.224126  1
  O  O22  1  0.000000  0.224126  0.000000  1
  O  O23  1  0.224126  0.000000  0.000000  1
  O  O24  1  0.474739  0.246506  0.474739  1
  O  O25  1  0.474739  0.474739  0.246506  1
  O  O26  1  0.525261  0.000000  0.771767  1
  O  O27  1  0.771767  1.000000  0.525261  1
  O  O28  1  0.775874  0.775874  0.775874  1
  O  O29  1  0.000000  0.525261  0.771767  1
  O  O30  1  0.753494  0.228233  0.228233  1
  O  O31  1  0.771767  0.525261  0.000000  1
