# generated using pymatgen
data_LiVP2HO8
_symmetry_space_group_name_H-M   'P 1'
_cell_length_a   7.74047582
_cell_length_b   7.98595635
_cell_length_c   9.73010837
_cell_angle_alpha   90.00000000
_cell_angle_beta   111.75396926
_cell_angle_gamma   90.00000000
_symmetry_Int_Tables_number   1
_chemical_formula_structural   LiVP2HO8
_chemical_formula_sum   'Li4 V4 P8 H4 O32'
_cell_volume   558.63344915
_cell_formula_units_Z   4
loop_
 _symmetry_equiv_pos_site_id
 _symmetry_equiv_pos_as_xyz
  1  'x, y, z'
loop_
 _atom_site_type_symbol
 _atom_site_label
 _atom_site_symmetry_multiplicity
 _atom_site_fract_x
 _atom_site_fract_y
 _atom_site_fract_z
 _atom_site_occupancy
  Li  Li0  1  0.601229  0.629814  0.477427  1
  Li  Li1  1  0.398771  0.129814  0.522573  1
  Li  Li2  1  0.102133  0.868341  0.971901  1
  Li  Li3  1  0.897867  0.368341  0.028099  1
  V  V4  1  0.236560  0.504167  0.496939  1
  V  V5  1  0.763440  0.004167  0.503061  1
  V  V6  1  0.257357  0.495064  0.001210  1
  V  V7  1  0.742643  0.995064  0.998790  1
  P  P8  1  0.018678  0.153609  0.316133  1
  P  P9  1  0.513427  0.346908  0.317935  1
  P  P10  1  0.981322  0.653609  0.683867  1
  P  P11  1  0.018271  0.149907  0.818954  1
  P  P12  1  0.486573  0.846908  0.682065  1
  P  P13  1  0.512444  0.342264  0.815487  1
  P  P14  1  0.981729  0.649907  0.181046  1
  P  P15  1  0.487556  0.842264  0.184513  1
  H  H16  1  0.741848  0.492348  0.258616  1
  H  H17  1  0.740231  0.493649  0.758568  1
  H  H18  1  0.258152  0.992348  0.741384  1
  H  H19  1  0.259769  0.993649  0.241432  1
  O  O20  1  0.198728  0.058151  0.341747  1
  O  O21  1  0.111123  0.669880  0.345777  1
  O  O22  1  0.066202  0.327089  0.389598  1
  O  O23  1  0.898870  0.056280  0.390398  1
  O  O24  1  0.691238  0.451940  0.344928  1
  O  O25  1  0.605703  0.825630  0.350837  1
  O  O26  1  0.561909  0.175808  0.395459  1
  O  O27  1  0.403994  0.450297  0.396869  1
  O  O28  1  0.101130  0.556280  0.609602  1
  O  O29  1  0.933798  0.827089  0.610402  1
  O  O30  1  0.888877  0.169880  0.654223  1
  O  O31  1  0.801272  0.558151  0.658253  1
  O  O32  1  0.596006  0.950297  0.603131  1
  O  O33  1  0.438091  0.675808  0.604541  1
  O  O34  1  0.191208  0.045378  0.843101  1
  O  O35  1  0.106313  0.671363  0.849696  1
  O  O36  1  0.394297  0.325630  0.649163  1
  O  O37  1  0.308762  0.951940  0.655072  1
  O  O38  1  0.060658  0.322754  0.895649  1
  O  O39  1  0.903202  0.048808  0.897119  1
  O  O40  1  0.696261  0.439932  0.844222  1
  O  O41  1  0.609734  0.828805  0.846925  1
  O  O42  1  0.567062  0.172110  0.891669  1
  O  O43  1  0.395570  0.441855  0.888706  1
  O  O44  1  0.096798  0.548808  0.102881  1
  O  O45  1  0.939342  0.822754  0.104351  1
  O  O46  1  0.893687  0.171363  0.150304  1
  O  O47  1  0.808792  0.545378  0.156899  1
  O  O48  1  0.604430  0.941855  0.111294  1
  O  O49  1  0.432938  0.672110  0.108331  1
  O  O50  1  0.390266  0.328805  0.153075  1
  O  O51  1  0.303739  0.939932  0.155778  1
