# generated using pymatgen
data_Li4Mn3Fe(PO4)4
_symmetry_space_group_name_H-M   'P 1'
_cell_length_a   7.79073915
_cell_length_b   7.79356259
_cell_length_c   10.53411700
_cell_angle_alpha   90.03617610
_cell_angle_beta   90.07437080
_cell_angle_gamma   104.26216188
_symmetry_Int_Tables_number   1
_chemical_formula_structural   Li4Mn3Fe(PO4)4
_chemical_formula_sum   'Li8 Mn6 Fe2 P8 O32'
_cell_volume   619.89207854
_cell_formula_units_Z   2
loop_
 _symmetry_equiv_pos_site_id
 _symmetry_equiv_pos_as_xyz
  1  'x, y, z'
loop_
 _atom_site_type_symbol
 _atom_site_label
 _atom_site_symmetry_multiplicity
 _atom_site_fract_x
 _atom_site_fract_y
 _atom_site_fract_z
 _atom_site_occupancy
  Li  Li0  1  0.000000  0.000000  0.000000  1
  Li  Li1  1  0.000000  0.500000  0.500000  1
  Li  Li2  1  0.500000  0.000000  0.500000  1
  Li  Li3  1  0.250136  0.249604  0.500334  1
  Li  Li4  1  0.749907  0.249578  0.999659  1
  Li  Li5  1  0.500000  0.500000  0.000000  1
  Li  Li6  1  0.250093  0.750422  0.000341  1
  Li  Li7  1  0.749864  0.750396  0.499666  1
  Mn  Mn8  1  0.361453  0.111691  0.781453  1
  Mn  Mn9  1  0.137931  0.388151  0.218578  1
  Mn  Mn10  1  0.361422  0.611690  0.718803  1
  Mn  Mn11  1  0.638578  0.388310  0.281197  1
  Mn  Mn12  1  0.862069  0.611849  0.781422  1
  Mn  Mn13  1  0.638547  0.888309  0.218547  1
  Fe  Fe14  1  0.860583  0.110283  0.718196  1
  Fe  Fe15  1  0.139417  0.889717  0.281804  1
  P  P16  1  0.079002  0.329071  0.906486  1
  P  P17  1  0.418544  0.168632  0.093005  1
  P  P18  1  0.582357  0.330545  0.592612  1
  P  P19  1  0.080820  0.832563  0.591676  1
  P  P20  1  0.919180  0.167437  0.408324  1
  P  P21  1  0.417643  0.669455  0.407388  1
  P  P22  1  0.581456  0.831368  0.906995  1
  P  P23  1  0.920998  0.670929  0.093514  1
  O  O24  1  0.085171  0.130623  0.338246  1
  O  O25  1  0.257959  0.008041  0.097038  1
  O  O26  1  0.112616  0.161989  0.837041  1
  O  O27  1  0.019133  0.269333  0.043813  1
  O  O28  1  0.479611  0.229891  0.956027  1
  O  O29  1  0.385253  0.336446  0.162051  1
  O  O30  1  0.586476  0.135364  0.162013  1
  O  O31  1  0.088132  0.637194  0.163028  1
  O  O32  1  0.240193  0.490182  0.903261  1
  O  O33  1  0.258203  0.507581  0.404357  1
  O  O34  1  0.757219  0.007890  0.404097  1
  O  O35  1  0.415038  0.363586  0.662232  1
  O  O36  1  0.619664  0.164827  0.662476  1
  O  O37  1  0.113355  0.664995  0.661521  1
  O  O38  1  0.019630  0.771013  0.454790  1
  O  O39  1  0.520022  0.268602  0.455972  1
  O  O40  1  0.479978  0.731398  0.544028  1
  O  O41  1  0.980370  0.228987  0.545210  1
  O  O42  1  0.886645  0.335005  0.338479  1
  O  O43  1  0.380336  0.835173  0.337524  1
  O  O44  1  0.584962  0.636414  0.337768  1
  O  O45  1  0.741797  0.492419  0.595643  1
  O  O46  1  0.242781  0.992110  0.595903  1
  O  O47  1  0.759807  0.509818  0.096739  1
  O  O48  1  0.911868  0.362806  0.836972  1
  O  O49  1  0.413524  0.864636  0.837987  1
  O  O50  1  0.614747  0.663554  0.837949  1
  O  O51  1  0.520389  0.770109  0.043973  1
  O  O52  1  0.980867  0.730667  0.956187  1
  O  O53  1  0.887384  0.838011  0.162959  1
  O  O54  1  0.742041  0.991959  0.902962  1
  O  O55  1  0.914829  0.869377  0.661754  1
