# generated using pymatgen
data_TbVB4
_symmetry_space_group_name_H-M   'P 1'
_cell_length_a   3.45450312
_cell_length_b   6.02229686
_cell_length_c   11.65873404
_cell_angle_alpha   90.00000000
_cell_angle_beta   90.00000000
_cell_angle_gamma   90.00000000
_symmetry_Int_Tables_number   1
_chemical_formula_structural   TbVB4
_chemical_formula_sum   'Tb4 V4 B16'
_cell_volume   242.54880770
_cell_formula_units_Z   4
loop_
 _symmetry_equiv_pos_site_id
 _symmetry_equiv_pos_as_xyz
  1  'x, y, z'
loop_
 _atom_site_type_symbol
 _atom_site_label
 _atom_site_symmetry_multiplicity
 _atom_site_fract_x
 _atom_site_fract_y
 _atom_site_fract_z
 _atom_site_occupancy
  Tb  Tb0  1  0.000000  0.123968  0.151439  1
  Tb  Tb1  1  0.000000  0.876032  0.848561  1
  Tb  Tb2  1  0.000000  0.623968  0.348561  1
  Tb  Tb3  1  0.000000  0.376032  0.651439  1
  V  V4  1  0.000000  0.127196  0.416936  1
  V  V5  1  0.000000  0.872804  0.583064  1
  V  V6  1  0.000000  0.627196  0.083064  1
  V  V7  1  0.000000  0.372804  0.916936  1
  B  B8  1  0.500000  0.477003  0.191706  1
  B  B9  1  0.500000  0.522997  0.808294  1
  B  B10  1  0.500000  0.977003  0.308294  1
  B  B11  1  0.500000  0.022997  0.691706  1
  B  B12  1  0.500000  0.285251  0.314619  1
  B  B13  1  0.500000  0.714749  0.685381  1
  B  B14  1  0.500000  0.785251  0.185381  1
  B  B15  1  0.500000  0.214749  0.814619  1
  B  B16  1  0.500000  0.363638  0.467379  1
  B  B17  1  0.500000  0.636362  0.532621  1
  B  B18  1  0.500000  0.863638  0.032621  1
  B  B19  1  0.500000  0.136362  0.967379  1
  B  B20  1  0.500000  0.385702  0.047192  1
  B  B21  1  0.500000  0.614298  0.952808  1
  B  B22  1  0.500000  0.885702  0.452808  1
  B  B23  1  0.500000  0.114298  0.547192  1
