# generated using pymatgen
data_BaHg3
_symmetry_space_group_name_H-M   'P 1'
_cell_length_a   7.41754357
_cell_length_b   7.41754357
_cell_length_c   5.35378228
_cell_angle_alpha   90.00000000
_cell_angle_beta   90.00000000
_cell_angle_gamma   120.00000000
_symmetry_Int_Tables_number   1
_chemical_formula_structural   BaHg3
_chemical_formula_sum   'Ba2 Hg6'
_cell_volume   255.10064095
_cell_formula_units_Z   2
loop_
 _symmetry_equiv_pos_site_id
 _symmetry_equiv_pos_as_xyz
  1  'x, y, z'
loop_
 _atom_site_type_symbol
 _atom_site_label
 _atom_site_symmetry_multiplicity
 _atom_site_fract_x
 _atom_site_fract_y
 _atom_site_fract_z
 _atom_site_occupancy
  Ba  Ba0  1  0.333333  0.666667  0.750000  1
  Ba  Ba1  1  0.666667  0.333333  0.250000  1
  Hg  Hg2  1  0.148160  0.296320  0.250000  1
  Hg  Hg3  1  0.703680  0.851840  0.250000  1
  Hg  Hg4  1  0.148160  0.851840  0.250000  1
  Hg  Hg5  1  0.851840  0.703680  0.750000  1
  Hg  Hg6  1  0.296320  0.148160  0.750000  1
  Hg  Hg7  1  0.851840  0.148160  0.750000  1
