# generated using pymatgen
data_CaAs
_symmetry_space_group_name_H-M   'P 1'
_cell_length_a   7.91616030
_cell_length_b   7.91616030
_cell_length_c   5.92082736
_cell_angle_alpha   90.00000000
_cell_angle_beta   90.00000000
_cell_angle_gamma   120.00000000
_symmetry_Int_Tables_number   1
_chemical_formula_structural   CaAs
_chemical_formula_sum   'Ca6 As6'
_cell_volume   321.32327865
_cell_formula_units_Z   6
loop_
 _symmetry_equiv_pos_site_id
 _symmetry_equiv_pos_as_xyz
  1  'x, y, z'
loop_
 _atom_site_type_symbol
 _atom_site_label
 _atom_site_symmetry_multiplicity
 _atom_site_fract_x
 _atom_site_fract_y
 _atom_site_fract_z
 _atom_site_occupancy
  Ca  Ca0  1  0.316941  0.000000  0.000000  1
  Ca  Ca1  1  0.683059  0.683059  0.000000  1
  Ca  Ca2  1  0.000000  0.316941  0.000000  1
  Ca  Ca3  1  0.650823  0.000000  0.500000  1
  Ca  Ca4  1  0.349177  0.349177  0.500000  1
  Ca  Ca5  1  0.000000  0.650823  0.500000  1
  As  As6  1  0.000000  0.000000  0.285881  1
  As  As7  1  0.000000  0.000000  0.714119  1
  As  As8  1  0.333333  0.666667  0.218871  1
  As  As9  1  0.333333  0.666667  0.781129  1
  As  As10  1  0.666667  0.333333  0.781129  1
  As  As11  1  0.666667  0.333333  0.218871  1
