# generated using pymatgen
data_Li4Mn(SiO3)3
_symmetry_space_group_name_H-M   'P 1'
_cell_length_a   6.35353189
_cell_length_b   6.35353189
_cell_length_c   10.12733894
_cell_angle_alpha   89.03917317
_cell_angle_beta   90.96082683
_cell_angle_gamma   72.53643273
_symmetry_Int_Tables_number   1
_chemical_formula_structural   Li4Mn(SiO3)3
_chemical_formula_sum   'Li8 Mn2 Si6 O18'
_cell_volume   389.81423762
_cell_formula_units_Z   2
loop_
 _symmetry_equiv_pos_site_id
 _symmetry_equiv_pos_as_xyz
  1  'x, y, z'
loop_
 _atom_site_type_symbol
 _atom_site_label
 _atom_site_symmetry_multiplicity
 _atom_site_fract_x
 _atom_site_fract_y
 _atom_site_fract_z
 _atom_site_occupancy
  Li  Li0  1  0.810244  0.380605  0.794438  1
  Li  Li1  1  0.462794  0.187724  0.208272  1
  Li  Li2  1  0.995147  0.995147  0.500000  1
  Li  Li3  1  0.543039  0.543039  0.500000  1
  Li  Li4  1  0.628750  0.628750  0.000000  1
  Li  Li5  1  0.997104  0.997104  0.000000  1
  Li  Li6  1  0.187724  0.462794  0.791728  1
  Li  Li7  1  0.380605  0.810244  0.205562  1
  Mn  Mn8  1  0.825911  0.828823  0.743903  1
  Mn  Mn9  1  0.828823  0.825911  0.256097  1
  Si  Si10  1  0.881528  0.340523  0.251813  1
  Si  Si11  1  0.476344  0.071579  0.500991  1
  Si  Si12  1  0.509110  0.131059  0.946450  1
  Si  Si13  1  0.131059  0.509110  0.053550  1
  Si  Si14  1  0.071579  0.476344  0.499009  1
  Si  Si15  1  0.340523  0.881528  0.748187  1
  O  O16  1  0.796761  0.141590  0.203098  1
  O  O17  1  0.950420  0.312922  0.414444  1
  O  O18  1  0.745079  0.118709  0.883677  1
  O  O19  1  0.708691  0.035184  0.578137  1
  O  O20  1  0.950023  0.505682  0.940533  1
  O  O21  1  0.978673  0.483988  0.646934  1
  O  O22  1  0.336037  0.118571  0.820548  1
  O  O23  1  0.688598  0.571513  0.223774  1
  O  O24  1  0.348581  0.348581  0.500000  1
  O  O25  1  0.390355  0.390355  0.000000  1
  O  O26  1  0.571513  0.688598  0.776226  1
  O  O27  1  0.118571  0.336037  0.179452  1
  O  O28  1  0.483988  0.978673  0.353066  1
  O  O29  1  0.505682  0.950023  0.059467  1
  O  O30  1  0.035184  0.708691  0.421863  1
  O  O31  1  0.118709  0.745079  0.116323  1
  O  O32  1  0.312922  0.950420  0.585556  1
  O  O33  1  0.141590  0.796761  0.796902  1
