# generated using pymatgen
data_V3FeSn2(PO4)6
_symmetry_space_group_name_H-M   'P 1'
_cell_length_a   9.00172020
_cell_length_b   9.00172020
_cell_length_c   9.00172020
_cell_angle_alpha   57.16733780
_cell_angle_beta   57.16733780
_cell_angle_gamma   57.16733780
_symmetry_Int_Tables_number   1
_chemical_formula_structural   V3FeSn2(PO4)6
_chemical_formula_sum   'V3 Fe1 Sn2 P6 O24'
_cell_volume   482.11678507
_cell_formula_units_Z   1
loop_
 _symmetry_equiv_pos_site_id
 _symmetry_equiv_pos_as_xyz
  1  'x, y, z'
loop_
 _atom_site_type_symbol
 _atom_site_label
 _atom_site_symmetry_multiplicity
 _atom_site_fract_x
 _atom_site_fract_y
 _atom_site_fract_z
 _atom_site_occupancy
  V  V0  1  0.648033  0.648033  0.648033  1
  V  V1  1  0.852919  0.852919  0.852919  1
  V  V2  1  0.351587  0.351587  0.351587  1
  Fe  Fe3  1  0.149559  0.149559  0.149559  1
  Sn  Sn4  1  0.004156  0.004156  0.004156  1
  Sn  Sn5  1  0.500191  0.500191  0.500191  1
  P  P6  1  0.249977  0.537413  0.962219  1
  P  P7  1  0.962219  0.249977  0.537413  1
  P  P8  1  0.537413  0.962219  0.249977  1
  P  P9  1  0.463602  0.036317  0.748854  1
  P  P10  1  0.036317  0.748854  0.463602  1
  P  P11  1  0.748854  0.463602  0.036317  1
  O  O12  1  0.129454  0.281870  0.509686  1
  O  O13  1  0.509686  0.129454  0.281870  1
  O  O14  1  0.281870  0.509686  0.129454  1
  O  O15  1  0.076716  0.721345  0.935677  1
  O  O16  1  0.222283  0.372241  0.985668  1
  O  O17  1  0.425572  0.565863  0.778878  1
  O  O18  1  0.935677  0.076716  0.721345  1
  O  O19  1  0.778878  0.425572  0.565863  1
  O  O20  1  0.628914  0.008450  0.782399  1
  O  O21  1  0.565863  0.778878  0.425572  1
  O  O22  1  0.279830  0.057315  0.922392  1
  O  O23  1  0.008450  0.782399  0.628914  1
  O  O24  1  0.985668  0.222283  0.372241  1
  O  O25  1  0.721345  0.935677  0.076716  1
  O  O26  1  0.437990  0.220569  0.574437  1
  O  O27  1  0.372241  0.985668  0.222283  1
  O  O28  1  0.220569  0.574437  0.437990  1
  O  O29  1  0.057315  0.922392  0.279830  1
  O  O30  1  0.574437  0.437990  0.220569  1
  O  O31  1  0.782399  0.628914  0.008450  1
  O  O32  1  0.922392  0.279830  0.057315  1
  O  O33  1  0.710297  0.495811  0.871535  1
  O  O34  1  0.495811  0.871535  0.710297  1
  O  O35  1  0.871535  0.710297  0.495811  1
