# generated using pymatgen
data_Mn11Fe(PO4)12
_symmetry_space_group_name_H-M   'P 1'
_cell_length_a   4.92977973
_cell_length_b   18.10340350
_cell_length_c   11.00519605
_cell_angle_alpha   90.00000000
_cell_angle_beta   116.72464204
_cell_angle_gamma   90.00000000
_symmetry_Int_Tables_number   1
_chemical_formula_structural   Mn11Fe(PO4)12
_chemical_formula_sum   'Mn11 Fe1 P12 O48'
_cell_volume   877.25040225
_cell_formula_units_Z   1
loop_
 _symmetry_equiv_pos_site_id
 _symmetry_equiv_pos_as_xyz
  1  'x, y, z'
loop_
 _atom_site_type_symbol
 _atom_site_label
 _atom_site_symmetry_multiplicity
 _atom_site_fract_x
 _atom_site_fract_y
 _atom_site_fract_z
 _atom_site_occupancy
  Mn  Mn0  1  0.645621  0.000000  0.715489  1
  Mn  Mn1  1  0.645710  0.666335  0.715574  1
  Mn  Mn2  1  0.645710  0.333665  0.715574  1
  Mn  Mn3  1  0.784577  0.667201  0.216880  1
  Mn  Mn4  1  0.784577  0.332799  0.216880  1
  Mn  Mn5  1  0.785738  0.000000  0.215796  1
  Mn  Mn6  1  0.214882  0.166770  0.784447  1
  Mn  Mn7  1  0.214882  0.833230  0.784447  1
  Mn  Mn8  1  0.215553  0.500000  0.784110  1
  Mn  Mn9  1  0.356192  0.167004  0.285157  1
  Mn  Mn10  1  0.356192  0.832996  0.285157  1
  Fe  Fe11  1  0.317201  0.500000  0.275464  1
  P  P12  1  0.514417  0.166777  0.599373  1
  P  P13  1  0.514417  0.833223  0.599373  1
  P  P14  1  0.513346  0.500000  0.599975  1
  P  P15  1  0.684232  0.166737  0.099401  1
  P  P16  1  0.684232  0.833263  0.099401  1
  P  P17  1  0.683146  0.500000  0.096087  1
  P  P18  1  0.316075  0.000000  0.900605  1
  P  P19  1  0.316843  0.666584  0.900730  1
  P  P20  1  0.316843  0.333416  0.900730  1
  P  P21  1  0.486371  0.000000  0.401039  1
  P  P22  1  0.485643  0.665286  0.400644  1
  P  P23  1  0.485643  0.334714  0.400644  1
  O  O24  1  0.298692  0.166820  0.445020  1
  O  O25  1  0.298692  0.833180  0.445020  1
  O  O26  1  0.297778  0.500000  0.447009  1
  O  O27  1  0.443180  0.233446  0.670648  1
  O  O28  1  0.442946  0.099995  0.670633  1
  O  O29  1  0.442946  0.900005  0.670633  1
  O  O30  1  0.443180  0.766554  0.670648  1
  O  O31  1  0.444343  0.566758  0.672520  1
  O  O32  1  0.444343  0.433242  0.672520  1
  O  O33  1  0.155892  0.000000  0.381478  1
  O  O34  1  0.154917  0.666297  0.381712  1
  O  O35  1  0.154917  0.333703  0.381712  1
  O  O36  1  0.607366  0.000000  0.881147  1
  O  O37  1  0.608052  0.333102  0.881420  1
  O  O38  1  0.608052  0.666898  0.881420  1
  O  O39  1  0.898962  0.233626  0.171048  1
  O  O40  1  0.899231  0.100115  0.171350  1
  O  O41  1  0.898962  0.766374  0.171048  1
  O  O42  1  0.905936  0.565814  0.170338  1
  O  O43  1  0.899231  0.899885  0.171350  1
  O  O44  1  0.905936  0.434186  0.170338  1
  O  O45  1  0.591833  0.166638  0.945643  1
  O  O46  1  0.591833  0.833362  0.945643  1
  O  O47  1  0.599116  0.500000  0.943494  1
  O  O48  1  0.409102  0.000000  0.054799  1
  O  O49  1  0.410201  0.665954  0.055026  1
  O  O50  1  0.410201  0.334046  0.055026  1
  O  O51  1  0.101595  0.066737  0.829159  1
  O  O52  1  0.101595  0.933263  0.829159  1
  O  O53  1  0.102101  0.733323  0.829476  1
  O  O54  1  0.102827  0.400164  0.829706  1
  O  O55  1  0.102101  0.266677  0.829476  1
  O  O56  1  0.102827  0.599836  0.829706  1
  O  O57  1  0.393445  0.166919  0.119241  1
  O  O58  1  0.393445  0.833081  0.119241  1
  O  O59  1  0.398056  0.500000  0.117434  1
  O  O60  1  0.844656  0.166731  0.618711  1
  O  O61  1  0.843897  0.500000  0.619872  1
  O  O62  1  0.844656  0.833269  0.618711  1
  O  O63  1  0.557372  0.066747  0.329454  1
  O  O64  1  0.557372  0.933253  0.329454  1
  O  O65  1  0.555124  0.732247  0.328361  1
  O  O66  1  0.555124  0.267753  0.328361  1
  O  O67  1  0.552972  0.401873  0.329351  1
  O  O68  1  0.552972  0.598127  0.329351  1
  O  O69  1  0.701916  0.000000  0.555018  1
  O  O70  1  0.701030  0.666080  0.554567  1
  O  O71  1  0.701030  0.333920  0.554567  1
