# generated using pymatgen
data_Li2Mn3Cr3O12
_symmetry_space_group_name_H-M   'P 1'
_cell_length_a   5.11705383
_cell_length_b   8.80314483
_cell_length_c   5.25815496
_cell_angle_alpha   90.00000000
_cell_angle_beta   109.09862238
_cell_angle_gamma   90.00000000
_symmetry_Int_Tables_number   1
_chemical_formula_structural   Li2Mn3Cr3O12
_chemical_formula_sum   'Li2 Mn3 Cr3 O12'
_cell_volume   223.82219923
_cell_formula_units_Z   1
loop_
 _symmetry_equiv_pos_site_id
 _symmetry_equiv_pos_as_xyz
  1  'x, y, z'
loop_
 _atom_site_type_symbol
 _atom_site_label
 _atom_site_symmetry_multiplicity
 _atom_site_fract_x
 _atom_site_fract_y
 _atom_site_fract_z
 _atom_site_occupancy
  Li  Li0  1  0.000000  0.500000  0.000000  1
  Li  Li1  1  0.500000  0.000000  0.000000  1
  Mn  Mn2  1  0.000000  0.331777  0.500000  1
  Mn  Mn3  1  0.000000  0.668223  0.500000  1
  Mn  Mn4  1  0.000000  0.000000  0.500000  1
  Cr  Cr5  1  0.500000  0.500000  0.500000  1
  Cr  Cr6  1  0.500000  0.828891  0.500000  1
  Cr  Cr7  1  0.500000  0.171109  0.500000  1
  O  O8  1  0.780947  0.500000  0.297430  1
  O  O9  1  0.768907  0.836857  0.297476  1
  O  O10  1  0.768907  0.163143  0.297476  1
  O  O11  1  0.253071  0.335156  0.297065  1
  O  O12  1  0.253071  0.664844  0.297065  1
  O  O13  1  0.271247  0.000000  0.307399  1
  O  O14  1  0.746929  0.335156  0.702935  1
  O  O15  1  0.746929  0.664844  0.702935  1
  O  O16  1  0.728753  0.000000  0.692601  1
  O  O17  1  0.219053  0.500000  0.702570  1
  O  O18  1  0.231093  0.836857  0.702524  1
  O  O19  1  0.231093  0.163143  0.702524  1
