# generated using pymatgen
data_K8Li9Cr4O16
_symmetry_space_group_name_H-M   'P 1'
_cell_length_a   5.60777699
_cell_length_b   9.12650968
_cell_length_c   10.48474937
_cell_angle_alpha   88.30815148
_cell_angle_beta   80.97756644
_cell_angle_gamma   89.65648073
_symmetry_Int_Tables_number   1
_chemical_formula_structural   K8Li9Cr4O16
_chemical_formula_sum   'K8 Li9 Cr4 O16'
_cell_volume   529.73258493
_cell_formula_units_Z   1
loop_
 _symmetry_equiv_pos_site_id
 _symmetry_equiv_pos_as_xyz
  1  'x, y, z'
loop_
 _atom_site_type_symbol
 _atom_site_label
 _atom_site_symmetry_multiplicity
 _atom_site_fract_x
 _atom_site_fract_y
 _atom_site_fract_z
 _atom_site_occupancy
  K  K0  1  0.826845  0.997076  0.871520  1
  K  K1  1  0.890958  0.284847  0.374073  1
  K  K2  1  0.625032  0.492964  0.649593  1
  K  K3  1  0.353072  0.265070  0.869706  1
  K  K4  1  0.649065  0.728136  0.124881  1
  K  K5  1  0.358937  0.506839  0.352400  1
  K  K6  1  0.104769  0.729360  0.620477  1
  K  K7  1  0.168048  0.991583  0.137337  1
  Li  Li8  1  0.927967  0.248669  0.701294  1
  Li  Li9  1  0.725798  0.516831  0.924381  1
  Li  Li10  1  0.831184  0.014954  0.558068  1
  Li  Li11  1  0.580754  0.749030  0.809044  1
  Li  Li12  1  0.582052  0.028099  0.302770  1
  Li  Li13  1  0.385929  0.970181  0.706355  1
  Li  Li14  1  0.411659  0.253257  0.192345  1
  Li  Li15  1  0.289447  0.488779  0.069696  1
  Li  Li16  1  0.082411  0.752255  0.304127  1
  Cr  Cr17  1  0.828226  0.282417  0.060385  1
  Cr  Cr18  1  0.655868  0.789770  0.446433  1
  Cr  Cr19  1  0.336822  0.202341  0.548990  1
  Cr  Cr20  1  0.170228  0.713227  0.941738  1
  O  O21  1  0.879348  0.710030  0.869742  1
  O  O22  1  0.851879  0.302514  0.885882  1
  O  O23  1  0.852852  0.938996  0.375330  1
  O  O24  1  0.826442  0.623719  0.416391  1
  O  O25  1  0.611008  0.821951  0.619773  1
  O  O26  1  0.609688  0.181498  0.625007  1
  O  O27  1  0.672155  0.112624  0.120245  1
  O  O28  1  0.408833  0.564499  0.888962  1
  O  O29  1  0.612055  0.422735  0.119287  1
  O  O30  1  0.318687  0.898922  0.878199  1
  O  O31  1  0.397965  0.801711  0.364395  1
  O  O32  1  0.400736  0.202076  0.374866  1
  O  O33  1  0.184360  0.372194  0.591158  1
  O  O34  1  0.120082  0.070253  0.634268  1
  O  O35  1  0.159420  0.684635  0.125887  1
  O  O36  1  0.114378  0.292865  0.119396  1
