# generated using pymatgen
data_LiFeP3(H7O8)2
_symmetry_space_group_name_H-M   'P 1'
_cell_length_a   7.50737711
_cell_length_b   9.01698624
_cell_length_c   10.90160481
_cell_angle_alpha   72.05924422
_cell_angle_beta   79.89314457
_cell_angle_gamma   71.12648368
_symmetry_Int_Tables_number   1
_chemical_formula_structural   LiFeP3(H7O8)2
_chemical_formula_sum   'Li2 Fe2 P6 H28 O32'
_cell_volume   661.97915808
_cell_formula_units_Z   2
loop_
 _symmetry_equiv_pos_site_id
 _symmetry_equiv_pos_as_xyz
  1  'x, y, z'
loop_
 _atom_site_type_symbol
 _atom_site_label
 _atom_site_symmetry_multiplicity
 _atom_site_fract_x
 _atom_site_fract_y
 _atom_site_fract_z
 _atom_site_occupancy
  Li  Li0  1  0.990207  0.513059  0.508437  1
  Li  Li1  1  0.409323  0.637612  0.609950  1
  Fe  Fe2  1  0.999748  0.001004  0.999894  1
  Fe  Fe3  1  0.583052  0.371789  0.404286  1
  P  P4  1  0.154961  0.133261  0.200180  1
  P  P5  1  0.040319  0.529732  0.787136  1
  P  P6  1  0.295259  0.228260  0.927235  1
  P  P7  1  0.705713  0.773604  0.070330  1
  P  P8  1  0.955023  0.467820  0.212542  1
  P  P9  1  0.847070  0.867754  0.797706  1
  H  H10  1  0.090801  0.659847  0.280065  1
  H  H11  1  0.048162  0.823734  0.316465  1
  H  H12  1  0.284339  0.268501  0.391535  1
  H  H13  1  0.197256  0.674455  0.068674  1
  H  H14  1  0.299046  0.079207  0.748904  1
  H  H15  1  0.322982  0.226663  0.537074  1
  H  H16  1  0.492893  0.998510  0.677570  1
  H  H17  1  0.339706  0.775069  0.058870  1
  H  H18  1  0.415495  0.399839  0.185684  1
  H  H19  1  0.300648  0.648390  0.378694  1
  H  H20  1  0.221002  0.947947  0.474013  1
  H  H21  1  0.627117  0.313786  0.139868  1
  H  H22  1  0.260662  0.931265  0.612666  1
  H  H23  1  0.483469  0.687369  0.297475  1
  H  H24  1  0.513571  0.311102  0.686311  1
  H  H25  1  0.732214  0.065764  0.387727  1
  H  H26  1  0.377082  0.687069  0.860886  1
  H  H27  1  0.773767  0.056282  0.527151  1
  H  H28  1  0.706053  0.346038  0.622746  1
  H  H29  1  0.585371  0.597829  0.815998  1
  H  H30  1  0.658924  0.226070  0.942018  1
  H  H31  1  0.507006  0.003075  0.322096  1
  H  H32  1  0.681036  0.765852  0.466211  1
  H  H33  1  0.701150  0.924257  0.250067  1
  H  H34  1  0.801198  0.326790  0.931978  1
  H  H35  1  0.719123  0.726303  0.609449  1
  H  H36  1  0.955258  0.175519  0.685612  1
  H  H37  1  0.910346  0.339920  0.721468  1
  O  O38  1  0.075790  0.008926  0.182092  1
  O  O39  1  0.247909  0.101212  0.320860  1
  O  O40  1  0.140587  0.507694  0.195412  1
  O  O41  1  0.310274  0.177437  0.081160  1
  O  O42  1  0.076045  0.704927  0.354616  1
  O  O43  1  0.186608  0.131756  0.894523  1
  O  O44  1  0.013447  0.699057  0.820140  1
  O  O45  1  0.148974  0.527725  0.658584  1
  O  O46  1  0.311152  0.315863  0.453926  1
  O  O47  1  0.237341  0.770365  0.013381  1
  O  O48  1  0.358656  0.059034  0.664825  1
  O  O49  1  0.168279  0.414794  0.906142  1
  O  O50  1  0.232040  0.870636  0.560553  1
  O  O51  1  0.547225  0.363397  0.207278  1
  O  O52  1  0.441456  0.619788  0.381522  1
  O  O53  1  0.489493  0.217741  0.861838  1
  O  O54  1  0.511087  0.784121  0.135849  1
  O  O55  1  0.570239  0.372195  0.605831  1
  O  O56  1  0.453845  0.636845  0.793626  1
  O  O57  1  0.760136  0.130096  0.438315  1
  O  O58  1  0.831501  0.585988  0.092943  1
  O  O59  1  0.642697  0.947924  0.333329  1
  O  O60  1  0.760192  0.231000  0.988550  1
  O  O61  1  0.708103  0.673963  0.545563  1
  O  O62  1  0.839436  0.465684  0.339969  1
  O  O63  1  0.984533  0.300523  0.176755  1
  O  O64  1  0.814210  0.868239  0.105342  1
  O  O65  1  0.928105  0.294131  0.646864  1
  O  O66  1  0.690715  0.823772  0.917282  1
  O  O67  1  0.854364  0.488718  0.811951  1
  O  O68  1  0.752067  0.906041  0.676988  1
  O  O69  1  0.927144  0.990061  0.819017  1
