# generated using pymatgen
data_LiVP3HO10
_symmetry_space_group_name_H-M   'P 1'
_cell_length_a   6.51199309
_cell_length_b   7.90841822
_cell_length_c   8.55310111
_cell_angle_alpha   96.17796973
_cell_angle_beta   97.31490429
_cell_angle_gamma   110.47871750
_symmetry_Int_Tables_number   1
_chemical_formula_structural   LiVP3HO10
_chemical_formula_sum   'Li2 V2 P6 H2 O20'
_cell_volume   403.75994024
_cell_formula_units_Z   2
loop_
 _symmetry_equiv_pos_site_id
 _symmetry_equiv_pos_as_xyz
  1  'x, y, z'
loop_
 _atom_site_type_symbol
 _atom_site_label
 _atom_site_symmetry_multiplicity
 _atom_site_fract_x
 _atom_site_fract_y
 _atom_site_fract_z
 _atom_site_occupancy
  Li  Li0  1  0.706699  0.968635  0.699695  1
  Li  Li1  1  0.293301  0.031365  0.300305  1
  V  V2  1  0.129511  0.337558  0.664285  1
  V  V3  1  0.870489  0.662442  0.335715  1
  P  P4  1  0.734002  0.902671  0.078471  1
  P  P5  1  0.371564  0.669836  0.228564  1
  P  P6  1  0.808427  0.214061  0.329659  1
  P  P7  1  0.191573  0.785939  0.670341  1
  P  P8  1  0.628436  0.330164  0.771436  1
  P  P9  1  0.265998  0.097329  0.921529  1
  H  H10  1  0.119186  0.399139  0.128920  1
  H  H11  1  0.880814  0.600861  0.871080  1
  O  O12  1  0.730150  0.884501  0.904193  1
  O  O13  1  0.552073  0.645446  0.344236  1
  O  O14  1  0.483662  0.812003  0.113107  1
  O  O15  1  0.244441  0.492416  0.097483  1
  O  O16  1  0.119089  0.176258  0.822722  1
  O  O17  1  0.026925  0.225272  0.439540  1
  O  O18  1  0.819122  0.115719  0.153435  1
  O  O19  1  0.400882  0.895908  0.619866  1
  O  O20  1  0.208782  0.736702  0.301500  1
  O  O21  1  0.838450  0.407958  0.296489  1
  O  O22  1  0.161550  0.592042  0.703511  1
  O  O23  1  0.791218  0.263298  0.698500  1
  O  O24  1  0.599118  0.104092  0.380134  1
  O  O25  1  0.180878  0.884281  0.846565  1
  O  O26  1  0.973075  0.774728  0.560460  1
  O  O27  1  0.880911  0.823742  0.177278  1
  O  O28  1  0.755559  0.507584  0.902517  1
  O  O29  1  0.516338  0.187997  0.886893  1
  O  O30  1  0.447927  0.354554  0.655764  1
  O  O31  1  0.269850  0.115499  0.095807  1
