# generated using pymatgen
data_Li4Co3OF11
_symmetry_space_group_name_H-M   'P 1'
_cell_length_a   5.74959576
_cell_length_b   5.90716758
_cell_length_c   6.30195693
_cell_angle_alpha   100.49297560
_cell_angle_beta   100.76144607
_cell_angle_gamma   97.62969894
_symmetry_Int_Tables_number   1
_chemical_formula_structural   Li4Co3OF11
_chemical_formula_sum   'Li4 Co3 O1 F11'
_cell_volume   203.65318763
_cell_formula_units_Z   1
loop_
 _symmetry_equiv_pos_site_id
 _symmetry_equiv_pos_as_xyz
  1  'x, y, z'
loop_
 _atom_site_type_symbol
 _atom_site_label
 _atom_site_symmetry_multiplicity
 _atom_site_fract_x
 _atom_site_fract_y
 _atom_site_fract_z
 _atom_site_occupancy
  Li  Li0  1  0.124069  0.337770  0.567872  1
  Li  Li1  1  0.599306  0.152014  0.324121  1
  Li  Li2  1  0.851589  0.644128  0.398340  1
  Li  Li3  1  0.321240  0.603627  0.147543  1
  Co  Co4  1  0.690335  0.379632  0.866052  1
  Co  Co5  1  0.001412  0.006780  0.009706  1
  Co  Co6  1  0.411734  0.857388  0.657853  1
  O  O7  1  0.681001  0.059295  0.869543  1
  F  F8  1  0.085670  0.323053  0.966618  1
  F  F9  1  0.388847  0.173171  0.588454  1
  F  F10  1  0.432252  0.590074  0.807083  1
  F  F11  1  0.932719  0.103386  0.289464  1
  F  F12  1  0.806447  0.410614  0.599062  1
  F  F13  1  0.183499  0.602860  0.415398  1
  F  F14  1  0.092900  0.889917  0.725020  1
  F  F15  1  0.591431  0.414101  0.159776  1
  F  F16  1  0.603909  0.821803  0.450625  1
  F  F17  1  0.886291  0.681972  0.030127  1
  F  F18  1  0.315349  0.948416  0.127341  1
