# generated using pymatgen
data_Mg2AlB2Ir5
_symmetry_space_group_name_H-M   'P 1'
_cell_length_a   9.48307501
_cell_length_b   9.48307501
_cell_length_c   2.92726612
_cell_angle_alpha   90.00000000
_cell_angle_beta   90.00000000
_cell_angle_gamma   90.00000000
_symmetry_Int_Tables_number   1
_chemical_formula_structural   Mg2AlB2Ir5
_chemical_formula_sum   'Mg4 Al2 B4 Ir10'
_cell_volume   263.24527054
_cell_formula_units_Z   2
loop_
 _symmetry_equiv_pos_site_id
 _symmetry_equiv_pos_as_xyz
  1  'x, y, z'
loop_
 _atom_site_type_symbol
 _atom_site_label
 _atom_site_symmetry_multiplicity
 _atom_site_fract_x
 _atom_site_fract_y
 _atom_site_fract_z
 _atom_site_occupancy
  Mg  Mg0  1  0.176319  0.676319  0.000000  1
  Mg  Mg1  1  0.323681  0.176319  0.000000  1
  Mg  Mg2  1  0.676319  0.823681  0.000000  1
  Mg  Mg3  1  0.823681  0.323681  0.000000  1
  Al  Al4  1  0.000000  0.000000  0.000000  1
  Al  Al5  1  0.500000  0.500000  0.000000  1
  B  B6  1  0.125425  0.374575  0.000000  1
  B  B7  1  0.374575  0.874575  0.000000  1
  B  B8  1  0.625425  0.125425  0.000000  1
  B  B9  1  0.874575  0.625425  0.000000  1
  Ir  Ir10  1  0.000000  0.500000  0.500000  1
  Ir  Ir11  1  0.071273  0.213617  0.500000  1
  Ir  Ir12  1  0.213617  0.928727  0.500000  1
  Ir  Ir13  1  0.286383  0.428727  0.500000  1
  Ir  Ir14  1  0.428727  0.713617  0.500000  1
  Ir  Ir15  1  0.500000  0.000000  0.500000  1
  Ir  Ir16  1  0.571273  0.286383  0.500000  1
  Ir  Ir17  1  0.713617  0.571273  0.500000  1
  Ir  Ir18  1  0.786383  0.071273  0.500000  1
  Ir  Ir19  1  0.928727  0.786383  0.500000  1
