# generated using pymatgen
data_Mn2CrFe3(PO4)6
_symmetry_space_group_name_H-M   'P 1'
_cell_length_a   8.60971507
_cell_length_b   8.60971507
_cell_length_c   8.60971507
_cell_angle_alpha   60.22904488
_cell_angle_beta   60.22904488
_cell_angle_gamma   60.22904488
_symmetry_Int_Tables_number   1
_chemical_formula_structural   Mn2CrFe3(PO4)6
_chemical_formula_sum   'Mn2 Cr1 Fe3 P6 O24'
_cell_volume   453.62558582
_cell_formula_units_Z   1
loop_
 _symmetry_equiv_pos_site_id
 _symmetry_equiv_pos_as_xyz
  1  'x, y, z'
loop_
 _atom_site_type_symbol
 _atom_site_label
 _atom_site_symmetry_multiplicity
 _atom_site_fract_x
 _atom_site_fract_y
 _atom_site_fract_z
 _atom_site_occupancy
  Mn  Mn0  1  0.998691  0.998691  0.998691  1
  Mn  Mn1  1  0.499655  0.499655  0.499655  1
  Cr  Cr2  1  0.142946  0.142946  0.142946  1
  Fe  Fe3  1  0.854674  0.854674  0.854674  1
  Fe  Fe4  1  0.646015  0.646015  0.646015  1
  Fe  Fe5  1  0.354510  0.354510  0.354510  1
  P  P6  1  0.957350  0.250536  0.541609  1
  P  P7  1  0.541609  0.957350  0.250536  1
  P  P8  1  0.250536  0.541609  0.957350  1
  P  P9  1  0.751709  0.455666  0.044844  1
  P  P10  1  0.455666  0.044844  0.751709  1
  P  P11  1  0.044844  0.751709  0.455666  1
  O  O12  1  0.886283  0.693810  0.489678  1
  O  O13  1  0.693810  0.489678  0.886283  1
  O  O14  1  0.941761  0.088269  0.736990  1
  O  O15  1  0.489678  0.886283  0.693810  1
  O  O16  1  0.998354  0.186253  0.382779  1
  O  O17  1  0.761283  0.412687  0.552751  1
  O  O18  1  0.736990  0.941761  0.088269  1
  O  O19  1  0.552751  0.761283  0.412687  1
  O  O20  1  0.814328  0.612181  0.006529  1
  O  O21  1  0.412687  0.552751  0.761283  1
  O  O22  1  0.916108  0.258597  0.062427  1
  O  O23  1  0.612181  0.006529  0.814328  1
  O  O24  1  0.382779  0.998354  0.186253  1
  O  O25  1  0.088269  0.736990  0.941761  1
  O  O26  1  0.590605  0.437857  0.241502  1
  O  O27  1  0.186253  0.382779  0.998354  1
  O  O28  1  0.437857  0.241502  0.590605  1
  O  O29  1  0.258597  0.062427  0.916108  1
  O  O30  1  0.241502  0.590605  0.437857  1
  O  O31  1  0.006529  0.814328  0.612181  1
  O  O32  1  0.503031  0.111489  0.316242  1
  O  O33  1  0.062427  0.916108  0.258597  1
  O  O34  1  0.316242  0.503031  0.111489  1
  O  O35  1  0.111489  0.316242  0.503031  1
