# generated using pymatgen
data_Cr(PO3)2
_symmetry_space_group_name_H-M   'P 1'
_cell_length_a   6.89369013
_cell_length_b   6.89369013
_cell_length_c   5.02870437
_cell_angle_alpha   75.95485918
_cell_angle_beta   104.04514082
_cell_angle_gamma   95.58235692
_symmetry_Int_Tables_number   1
_chemical_formula_structural   Cr(PO3)2
_chemical_formula_sum   'Cr2 P4 O12'
_cell_volume   224.71677915
_cell_formula_units_Z   2
loop_
 _symmetry_equiv_pos_site_id
 _symmetry_equiv_pos_as_xyz
  1  'x, y, z'
loop_
 _atom_site_type_symbol
 _atom_site_label
 _atom_site_symmetry_multiplicity
 _atom_site_fract_x
 _atom_site_fract_y
 _atom_site_fract_z
 _atom_site_occupancy
  Cr  Cr0  1  0.113218  0.113218  0.750000  1
  Cr  Cr1  1  0.886782  0.886782  0.250000  1
  P  P2  1  0.197536  0.623810  0.761490  1
  P  P3  1  0.376190  0.802464  0.261490  1
  P  P4  1  0.623810  0.197536  0.738510  1
  P  P5  1  0.802464  0.376190  0.238510  1
  O  O6  1  0.053449  0.794474  0.657924  1
  O  O7  1  0.205526  0.946551  0.157924  1
  O  O8  1  0.115311  0.413813  0.813098  1
  O  O9  1  0.341802  0.647031  0.543693  1
  O  O10  1  0.586187  0.884689  0.313098  1
  O  O11  1  0.352969  0.658198  0.043693  1
  O  O12  1  0.647031  0.341802  0.956307  1
  O  O13  1  0.413813  0.115311  0.686902  1
  O  O14  1  0.658198  0.352969  0.456307  1
  O  O15  1  0.884689  0.586187  0.186902  1
  O  O16  1  0.794474  0.053449  0.842076  1
  O  O17  1  0.946551  0.205526  0.342076  1
