# generated using pymatgen
data_Cs2KU2(Si2O7)2
_symmetry_space_group_name_H-M   'P 1'
_cell_length_a   7.28732367
_cell_length_b   7.28732367
_cell_length_c   7.69981572
_cell_angle_alpha   90.00000000
_cell_angle_beta   90.00000000
_cell_angle_gamma   108.24300945
_symmetry_Int_Tables_number   1
_chemical_formula_structural   Cs2KU2(Si2O7)2
_chemical_formula_sum   'Cs2 K1 U2 Si4 O14'
_cell_volume   388.34700261
_cell_formula_units_Z   1
loop_
 _symmetry_equiv_pos_site_id
 _symmetry_equiv_pos_as_xyz
  1  'x, y, z'
loop_
 _atom_site_type_symbol
 _atom_site_label
 _atom_site_symmetry_multiplicity
 _atom_site_fract_x
 _atom_site_fract_y
 _atom_site_fract_z
 _atom_site_occupancy
  Cs  Cs0  1  0.783252  0.216748  0.000000  1
  Cs  Cs1  1  0.216748  0.783252  0.000000  1
  K  K2  1  0.000000  0.000000  0.500000  1
  U  U3  1  0.500000  0.000000  0.500000  1
  U  U4  1  0.000000  0.500000  0.500000  1
  Si  Si5  1  0.691446  0.691446  0.205452  1
  Si  Si6  1  0.308554  0.308554  0.205452  1
  Si  Si7  1  0.691446  0.691446  0.794548  1
  Si  Si8  1  0.308554  0.308554  0.794548  1
  O  O9  1  0.752198  0.247802  0.500000  1
  O  O10  1  0.500000  0.500000  0.797573  1
  O  O11  1  0.500000  0.500000  0.202427  1
  O  O12  1  0.247802  0.752198  0.500000  1
  O  O13  1  0.644495  0.873961  0.705136  1
  O  O14  1  0.355505  0.126039  0.705136  1
  O  O15  1  0.873961  0.644495  0.294864  1
  O  O16  1  0.126039  0.355505  0.294864  1
  O  O17  1  0.355505  0.126039  0.294864  1
  O  O18  1  0.644495  0.873961  0.294864  1
  O  O19  1  0.126039  0.355505  0.705136  1
  O  O20  1  0.873961  0.644495  0.705136  1
  O  O21  1  0.248801  0.248801  0.000000  1
  O  O22  1  0.751199  0.751199  0.000000  1
