# generated using pymatgen
data_Li12Mg3Si4
_symmetry_space_group_name_H-M   'P 1'
_cell_length_a   9.25340482
_cell_length_b   9.25340482
_cell_length_c   9.25340482
_cell_angle_alpha   109.47122063
_cell_angle_beta   109.47122063
_cell_angle_gamma   109.47122063
_symmetry_Int_Tables_number   1
_chemical_formula_structural   Li12Mg3Si4
_chemical_formula_sum   'Li24 Mg6 Si8'
_cell_volume   609.93393366
_cell_formula_units_Z   2
loop_
 _symmetry_equiv_pos_site_id
 _symmetry_equiv_pos_as_xyz
  1  'x, y, z'
loop_
 _atom_site_type_symbol
 _atom_site_label
 _atom_site_symmetry_multiplicity
 _atom_site_fract_x
 _atom_site_fract_y
 _atom_site_fract_z
 _atom_site_occupancy
  Li  Li0  1  0.113311  0.082346  0.269756  1
  Li  Li1  1  0.917654  0.687409  0.030965  1
  Li  Li2  1  0.156445  0.886689  0.469035  1
  Li  Li3  1  0.469035  0.156445  0.886689  1
  Li  Li4  1  0.730244  0.343555  0.812591  1
  Li  Li5  1  0.812591  0.730244  0.343555  1
  Li  Li6  1  0.687409  0.030965  0.917654  1
  Li  Li7  1  0.843555  0.230244  0.312591  1
  Li  Li8  1  0.530965  0.187409  0.417654  1
  Li  Li9  1  0.656445  0.969035  0.386689  1
  Li  Li10  1  0.230244  0.312591  0.843555  1
  Li  Li11  1  0.417654  0.530965  0.187409  1
  Li  Li12  1  0.969035  0.386689  0.656445  1
  Li  Li13  1  0.269756  0.113311  0.082346  1
  Li  Li14  1  0.082346  0.269756  0.113311  1
  Li  Li15  1  0.312591  0.843555  0.230244  1
  Li  Li16  1  0.187409  0.417654  0.530965  1
  Li  Li17  1  0.386689  0.656445  0.969035  1
  Li  Li18  1  0.582346  0.613311  0.769756  1
  Li  Li19  1  0.769756  0.582346  0.613311  1
  Li  Li20  1  0.613311  0.769756  0.582346  1
  Li  Li21  1  0.343555  0.812591  0.730244  1
  Li  Li22  1  0.030965  0.917654  0.687409  1
  Li  Li23  1  0.886689  0.469035  0.156445  1
  Mg  Mg24  1  0.250000  0.625000  0.375000  1
  Mg  Mg25  1  0.375000  0.250000  0.625000  1
  Mg  Mg26  1  0.125000  0.750000  0.875000  1
  Mg  Mg27  1  0.875000  0.125000  0.750000  1
  Mg  Mg28  1  0.625000  0.375000  0.250000  1
  Mg  Mg29  1  0.750000  0.875000  0.125000  1
  Si  Si30  1  0.406448  0.406448  0.406448  1
  Si  Si31  1  0.593552  0.500000  0.000000  1
  Si  Si32  1  1.000000  0.593552  0.500000  1
  Si  Si33  1  0.500000  1.000000  0.593552  1
  Si  Si34  1  1.000000  0.093552  0.500000  1
  Si  Si35  1  0.500000  1.000000  0.093552  1
  Si  Si36  1  0.093552  0.500000  0.000000  1
  Si  Si37  1  0.906448  0.906448  0.906448  1
