# generated using pymatgen
data_Li17Ag12F29
_symmetry_space_group_name_H-M   'P 1'
_cell_length_a   10.90464963
_cell_length_b   10.90464963
_cell_length_c   10.90464963
_cell_angle_alpha   60.00000000
_cell_angle_beta   60.00000000
_cell_angle_gamma   60.00000000
_symmetry_Int_Tables_number   1
_chemical_formula_structural   Li17Ag12F29
_chemical_formula_sum   'Li17 Ag12 F29'
_cell_volume   916.89615238
_cell_formula_units_Z   1
loop_
 _symmetry_equiv_pos_site_id
 _symmetry_equiv_pos_as_xyz
  1  'x, y, z'
loop_
 _atom_site_type_symbol
 _atom_site_label
 _atom_site_symmetry_multiplicity
 _atom_site_fract_x
 _atom_site_fract_y
 _atom_site_fract_z
 _atom_site_occupancy
  Li  Li0  1  0.441540  0.852820  0.852820  1
  Li  Li1  1  0.671040  0.986880  0.671040  1
  Li  Li2  1  0.852820  0.852820  0.441540  1
  Li  Li3  1  0.852820  0.852820  0.852820  1
  Li  Li4  1  0.671040  0.671040  0.671040  1
  Li  Li5  1  0.671040  0.671040  0.986880  1
  Li  Li6  1  0.986880  0.671040  0.671040  1
  Li  Li7  1  0.852820  0.441540  0.852820  1
  Li  Li8  1  0.364007  0.907980  0.364007  1
  Li  Li9  1  0.364007  0.364007  0.907980  1
  Li  Li10  1  0.364007  0.364007  0.364007  1
  Li  Li11  1  0.500000  0.500000  0.500000  1
  Li  Li12  1  0.907980  0.364007  0.364007  1
  Li  Li13  1  0.147459  0.557624  0.147459  1
  Li  Li14  1  0.147459  0.147459  0.147459  1
  Li  Li15  1  0.147459  0.147459  0.557624  1
  Li  Li16  1  0.557624  0.147459  0.147459  1
  Ag  Ag17  1  0.298090  0.701910  0.701910  1
  Ag  Ag18  1  0.298090  0.701910  0.298090  1
  Ag  Ag19  1  0.701910  0.701910  0.298090  1
  Ag  Ag20  1  0.298090  0.298090  0.701910  1
  Ag  Ag21  1  0.701910  0.298090  0.701910  1
  Ag  Ag22  1  0.701910  0.298090  0.298090  1
  Ag  Ag23  1  0.005324  0.494676  0.494676  1
  Ag  Ag24  1  0.005324  0.494676  0.005324  1
  Ag  Ag25  1  0.005324  0.005324  0.494676  1
  Ag  Ag26  1  0.494676  0.494676  0.005324  1
  Ag  Ag27  1  0.494676  0.005324  0.494676  1
  Ag  Ag28  1  0.494676  0.005324  0.005324  1
  F  F29  1  0.750000  0.750000  0.750000  1
  F  F30  1  0.249272  0.969721  0.531734  1
  F  F31  1  0.249272  0.969721  0.249272  1
  F  F32  1  0.033692  0.750571  0.750571  1
  F  F33  1  0.033692  0.750571  0.465166  1
  F  F34  1  0.531734  0.969721  0.249272  1
  F  F35  1  0.033692  0.465166  0.750571  1
  F  F36  1  0.465166  0.750571  0.750571  1
  F  F37  1  0.465166  0.750571  0.033692  1
  F  F38  1  0.249272  0.531734  0.969721  1
  F  F39  1  0.249272  0.531734  0.249272  1
  F  F40  1  0.431510  0.705470  0.431510  1
  F  F41  1  0.750571  0.750571  0.465166  1
  F  F42  1  0.750571  0.750571  0.033692  1
  F  F43  1  0.431510  0.431510  0.705470  1
  F  F44  1  0.431510  0.431510  0.431510  1
  F  F45  1  0.249272  0.249272  0.969721  1
  F  F46  1  0.249272  0.249272  0.531734  1
  F  F47  1  0.705470  0.431510  0.431510  1
  F  F48  1  0.531734  0.249272  0.969721  1
  F  F49  1  0.531734  0.249272  0.249272  1
  F  F50  1  0.750571  0.465166  0.033692  1
  F  F51  1  0.750571  0.465166  0.750571  1
  F  F52  1  0.465166  0.033692  0.750571  1
  F  F53  1  0.969721  0.531734  0.249272  1
  F  F54  1  0.750571  0.033692  0.465166  1
  F  F55  1  0.750571  0.033692  0.750571  1
  F  F56  1  0.969721  0.249272  0.531734  1
  F  F57  1  0.969721  0.249272  0.249272  1
