# generated using pymatgen
data_LiGaGeO4
_symmetry_space_group_name_H-M   'P 1'
_cell_length_a   8.76076171
_cell_length_b   8.76076171
_cell_length_c   8.76076171
_cell_angle_alpha   107.84939191
_cell_angle_beta   107.84939191
_cell_angle_gamma   107.84939191
_symmetry_Int_Tables_number   1
_chemical_formula_structural   LiGaGeO4
_chemical_formula_sum   'Li6 Ga6 Ge6 O24'
_cell_volume   546.48454068
_cell_formula_units_Z   6
loop_
 _symmetry_equiv_pos_site_id
 _symmetry_equiv_pos_as_xyz
  1  'x, y, z'
loop_
 _atom_site_type_symbol
 _atom_site_label
 _atom_site_symmetry_multiplicity
 _atom_site_fract_x
 _atom_site_fract_y
 _atom_site_fract_z
 _atom_site_occupancy
  Li  Li0  1  0.063765  0.233247  0.464649  1
  Li  Li1  1  0.233247  0.464649  0.063765  1
  Li  Li2  1  0.464649  0.063765  0.233247  1
  Li  Li3  1  0.936235  0.766753  0.535351  1
  Li  Li4  1  0.766753  0.535351  0.936235  1
  Li  Li5  1  0.535351  0.936235  0.766753  1
  Ga  Ga6  1  0.385391  0.567837  0.791605  1
  Ga  Ga7  1  0.791605  0.385391  0.567837  1
  Ga  Ga8  1  0.614609  0.432163  0.208395  1
  Ga  Ga9  1  0.432163  0.208395  0.614609  1
  Ga  Ga10  1  0.208395  0.614609  0.432163  1
  Ga  Ga11  1  0.567837  0.791605  0.385391  1
  Ge  Ge12  1  0.895611  0.133373  0.724902  1
  Ge  Ge13  1  0.133373  0.724902  0.895611  1
  Ge  Ge14  1  0.275098  0.104389  0.866627  1
  Ge  Ge15  1  0.104389  0.866627  0.275098  1
  Ge  Ge16  1  0.866627  0.275098  0.104389  1
  Ge  Ge17  1  0.724902  0.895611  0.133373  1
  O  O18  1  0.667601  0.353265  0.698945  1
  O  O19  1  0.039258  0.370484  0.321875  1
  O  O20  1  0.321875  0.039258  0.370484  1
  O  O21  1  0.370484  0.321875  0.039258  1
  O  O22  1  0.960742  0.629516  0.678125  1
  O  O23  1  0.678125  0.960742  0.629516  1
  O  O24  1  0.629516  0.678125  0.960742  1
  O  O25  1  0.353265  0.698945  0.667601  1
  O  O26  1  0.072549  0.742754  0.395672  1
  O  O27  1  0.698945  0.667601  0.353265  1
  O  O28  1  0.646735  0.301055  0.332399  1
  O  O29  1  0.332399  0.646735  0.301055  1
  O  O30  1  0.927451  0.257246  0.604328  1
  O  O31  1  0.257246  0.604328  0.927451  1
  O  O32  1  0.604328  0.927451  0.257246  1
  O  O33  1  0.957249  0.974398  0.276762  1
  O  O34  1  0.742754  0.395672  0.072549  1
  O  O35  1  0.395672  0.072549  0.742754  1
  O  O36  1  0.723238  0.042751  0.025602  1
  O  O37  1  0.974398  0.276762  0.957249  1
  O  O38  1  0.276762  0.957249  0.974398  1
  O  O39  1  0.042751  0.025602  0.723238  1
  O  O40  1  0.025602  0.723238  0.042751  1
  O  O41  1  0.301055  0.332399  0.646735  1
