# generated using pymatgen
data_Fe4O5F3
_symmetry_space_group_name_H-M   'P 1'
_cell_length_a   4.75714019
_cell_length_b   4.75714019
_cell_length_c   6.04836727
_cell_angle_alpha   90.00000000
_cell_angle_beta   90.00000000
_cell_angle_gamma   95.23139445
_symmetry_Int_Tables_number   1
_chemical_formula_structural   Fe4O5F3
_chemical_formula_sum   'Fe4 O5 F3'
_cell_volume   136.30671827
_cell_formula_units_Z   1
loop_
 _symmetry_equiv_pos_site_id
 _symmetry_equiv_pos_as_xyz
  1  'x, y, z'
loop_
 _atom_site_type_symbol
 _atom_site_label
 _atom_site_symmetry_multiplicity
 _atom_site_fract_x
 _atom_site_fract_y
 _atom_site_fract_z
 _atom_site_occupancy
  Fe  Fe0  1  0.990491  0.009509  0.742894  1
  Fe  Fe1  1  0.990491  0.009509  0.257106  1
  Fe  Fe2  1  0.529317  0.470683  0.500000  1
  Fe  Fe3  1  0.493871  0.506129  0.000000  1
  O  O4  1  0.811974  0.188026  0.500000  1
  O  O5  1  0.305785  0.306311  0.761648  1
  O  O6  1  0.305785  0.306311  0.238352  1
  O  O7  1  0.693689  0.694215  0.761648  1
  O  O8  1  0.693689  0.694215  0.238352  1
  F  F9  1  0.804882  0.195118  0.000000  1
  F  F10  1  0.193512  0.806488  0.500000  1
  F  F11  1  0.186516  0.813484  0.000000  1
