# generated using pymatgen
data_LiNiPO4
_symmetry_space_group_name_H-M   'P 1'
_cell_length_a   7.54752760
_cell_length_b   4.85470608
_cell_length_c   18.00687128
_cell_angle_alpha   90.00000000
_cell_angle_beta   91.08217984
_cell_angle_gamma   90.00000000
_symmetry_Int_Tables_number   1
_chemical_formula_structural   LiNiPO4
_chemical_formula_sum   'Li8 Ni8 P8 O32'
_cell_volume   659.67259323
_cell_formula_units_Z   8
loop_
 _symmetry_equiv_pos_site_id
 _symmetry_equiv_pos_as_xyz
  1  'x, y, z'
loop_
 _atom_site_type_symbol
 _atom_site_label
 _atom_site_symmetry_multiplicity
 _atom_site_fract_x
 _atom_site_fract_y
 _atom_site_fract_z
 _atom_site_occupancy
  Li  Li0  1  0.014185  0.766323  0.411941  1
  Li  Li1  1  0.014185  0.733677  0.911941  1
  Li  Li2  1  0.506430  0.358024  0.180739  1
  Li  Li3  1  0.506430  0.141976  0.680739  1
  Li  Li4  1  0.493570  0.858024  0.319261  1
  Li  Li5  1  0.493570  0.641976  0.819261  1
  Li  Li6  1  0.985815  0.266323  0.088059  1
  Li  Li7  1  0.985815  0.233677  0.588059  1
  Ni  Ni8  1  0.164611  0.775917  0.228593  1
  Ni  Ni9  1  0.164611  0.724083  0.728593  1
  Ni  Ni10  1  0.349533  0.227535  0.484985  1
  Ni  Ni11  1  0.349533  0.272465  0.984985  1
  Ni  Ni12  1  0.650467  0.727535  0.015015  1
  Ni  Ni13  1  0.650467  0.772465  0.515015  1
  Ni  Ni14  1  0.835389  0.275917  0.271407  1
  Ni  Ni15  1  0.835389  0.224083  0.771407  1
  P  P16  1  0.241177  0.351198  0.319456  1
  P  P17  1  0.241177  0.148802  0.819456  1
  P  P18  1  0.249346  0.706869  0.065361  1
  P  P19  1  0.249346  0.793131  0.565361  1
  P  P20  1  0.750654  0.206869  0.434639  1
  P  P21  1  0.750654  0.293131  0.934639  1
  P  P22  1  0.758823  0.851198  0.180544  1
  P  P23  1  0.758823  0.648802  0.680544  1
  O  O24  1  0.059485  0.476535  0.290121  1
  O  O25  1  0.059485  0.023465  0.790121  1
  O  O26  1  0.178862  0.587728  0.990700  1
  O  O27  1  0.139986  0.589655  0.130343  1
  O  O28  1  0.252804  0.436370  0.401731  1
  O  O29  1  0.254436  0.037752  0.307569  1
  O  O30  1  0.178862  0.912272  0.490700  1
  O  O31  1  0.139986  0.910345  0.630343  1
  O  O32  1  0.252804  0.063630  0.901731  1
  O  O33  1  0.254436  0.462248  0.807569  1
  O  O34  1  0.248298  0.025262  0.066467  1
  O  O35  1  0.248298  0.474738  0.566467  1
  O  O36  1  0.380982  0.507817  0.271697  1
  O  O37  1  0.380982  0.992183  0.771697  1
  O  O38  1  0.443012  0.578569  0.074340  1
  O  O39  1  0.443012  0.921431  0.574340  1
  O  O40  1  0.556988  0.078569  0.425660  1
  O  O41  1  0.556988  0.421431  0.925660  1
  O  O42  1  0.619018  0.007817  0.228303  1
  O  O43  1  0.619018  0.492183  0.728303  1
  O  O44  1  0.751702  0.525262  0.433533  1
  O  O45  1  0.751702  0.974738  0.933533  1
  O  O46  1  0.745564  0.537752  0.192431  1
  O  O47  1  0.747196  0.936370  0.098269  1
  O  O48  1  0.860014  0.089655  0.369657  1
  O  O49  1  0.821138  0.087728  0.509300  1
  O  O50  1  0.745564  0.962248  0.692431  1
  O  O51  1  0.747196  0.563630  0.598269  1
  O  O52  1  0.860014  0.410345  0.869657  1
  O  O53  1  0.821138  0.412272  0.009300  1
  O  O54  1  0.940515  0.976535  0.209879  1
  O  O55  1  0.940515  0.523465  0.709879  1
