# generated using pymatgen
data_V4O7F5
_symmetry_space_group_name_H-M   'P 1'
_cell_length_a   5.44320481
_cell_length_b   5.29807815
_cell_length_c   7.13414530
_cell_angle_alpha   90.00000000
_cell_angle_beta   92.21313105
_cell_angle_gamma   90.00000000
_symmetry_Int_Tables_number   1
_chemical_formula_structural   V4O7F5
_chemical_formula_sum   'V4 O7 F5'
_cell_volume   205.58476186
_cell_formula_units_Z   1
loop_
 _symmetry_equiv_pos_site_id
 _symmetry_equiv_pos_as_xyz
  1  'x, y, z'
loop_
 _atom_site_type_symbol
 _atom_site_label
 _atom_site_symmetry_multiplicity
 _atom_site_fract_x
 _atom_site_fract_y
 _atom_site_fract_z
 _atom_site_occupancy
  V  V0  1  0.465787  0.465585  0.745500  1
  V  V1  1  0.534213  0.465585  0.254500  1
  V  V2  1  0.955999  0.981379  0.745394  1
  V  V3  1  0.044001  0.981379  0.254606  1
  O  O4  1  0.000000  0.075576  0.500000  1
  O  O5  1  0.305439  0.212955  0.797272  1
  O  O6  1  0.694561  0.212955  0.202728  1
  O  O7  1  0.500000  0.422694  0.500000  1
  O  O8  1  0.287310  0.800837  0.290037  1
  O  O9  1  0.712690  0.800837  0.709963  1
  O  O10  1  0.000000  0.943761  0.000000  1
  F  F11  1  0.206363  0.303833  0.206090  1
  F  F12  1  0.793637  0.303833  0.793910  1
  F  F13  1  0.500000  0.608067  0.000000  1
  F  F14  1  0.202120  0.710362  0.707051  1
  F  F15  1  0.797880  0.710362  0.292949  1
