# generated using pymatgen
data_Ba2Tb2Mn4O11
_symmetry_space_group_name_H-M   'P 1'
_cell_length_a   9.61076861
_cell_length_b   9.61076861
_cell_length_c   9.61076861
_cell_angle_alpha   132.93880569
_cell_angle_beta   129.09121057
_cell_angle_gamma   71.83385124
_symmetry_Int_Tables_number   1
_chemical_formula_structural   Ba2Tb2Mn4O11
_chemical_formula_sum   'Ba4 Tb4 Mn8 O22'
_cell_volume   493.44681379
_cell_formula_units_Z   2
loop_
 _symmetry_equiv_pos_site_id
 _symmetry_equiv_pos_as_xyz
  1  'x, y, z'
loop_
 _atom_site_type_symbol
 _atom_site_label
 _atom_site_symmetry_multiplicity
 _atom_site_fract_x
 _atom_site_fract_y
 _atom_site_fract_z
 _atom_site_occupancy
  Ba  Ba0  1  0.002861  0.751075  0.251786  1
  Ba  Ba1  1  0.997139  0.248925  0.748214  1
  Ba  Ba2  1  0.499289  0.251075  0.248214  1
  Ba  Ba3  1  0.500711  0.748925  0.751786  1
  Tb  Tb4  1  0.727350  0.503549  0.223802  1
  Tb  Tb5  1  0.272650  0.496451  0.776198  1
  Tb  Tb6  1  0.279747  0.003549  0.276198  1
  Tb  Tb7  1  0.720253  0.996451  0.723802  1
  Mn  Mn8  1  0.114242  0.864242  0.750000  1
  Mn  Mn9  1  0.885758  0.635758  0.750000  1
  Mn  Mn10  1  0.885758  0.135758  0.250000  1
  Mn  Mn11  1  0.114242  0.364242  0.250000  1
  Mn  Mn12  1  0.375652  0.125652  0.750000  1
  Mn  Mn13  1  0.624348  0.374348  0.750000  1
  Mn  Mn14  1  0.624348  0.874348  0.250000  1
  Mn  Mn15  1  0.375652  0.625652  0.250000  1
  O  O16  1  0.867554  0.883460  0.551965  1
  O  O17  1  0.132446  0.684410  0.015906  1
  O  O18  1  0.331496  0.815590  0.948035  1
  O  O19  1  0.668504  0.616540  0.484094  1
  O  O20  1  0.132446  0.116540  0.448035  1
  O  O21  1  0.867554  0.315590  0.984094  1
  O  O22  1  0.668504  0.184410  0.051965  1
  O  O23  1  0.331496  0.383460  0.515906  1
  O  O24  1  0.251354  0.001354  0.750000  1
  O  O25  1  0.748646  0.498646  0.750000  1
  O  O26  1  0.748646  0.998646  0.250000  1
  O  O27  1  0.251354  0.501354  0.250000  1
  O  O28  1  0.047060  0.591217  0.455843  1
  O  O29  1  0.952940  0.408783  0.544157  1
  O  O30  1  0.135374  0.091217  0.044157  1
  O  O31  1  0.864626  0.908783  0.955843  1
  O  O32  1  0.415048  0.885497  0.529550  1
  O  O33  1  0.584952  0.114503  0.470450  1
  O  O34  1  0.355947  0.385497  0.970450  1
  O  O35  1  0.644053  0.614503  0.029550  1
  O  O36  1  0.500000  0.250000  0.750000  1
  O  O37  1  0.500000  0.750000  0.250000  1
