# generated using pymatgen
data_ReTeSCl4
_symmetry_space_group_name_H-M   'P 1'
_cell_length_a   10.40213423
_cell_length_b   10.40213423
_cell_length_c   10.40213423
_cell_angle_alpha   115.18780560
_cell_angle_beta   115.18780560
_cell_angle_gamma   98.55893182
_symmetry_Int_Tables_number   1
_chemical_formula_structural   ReTeSCl4
_chemical_formula_sum   'Re4 Te4 S4 Cl16'
_cell_volume   843.55978104
_cell_formula_units_Z   4
loop_
 _symmetry_equiv_pos_site_id
 _symmetry_equiv_pos_as_xyz
  1  'x, y, z'
loop_
 _atom_site_type_symbol
 _atom_site_label
 _atom_site_symmetry_multiplicity
 _atom_site_fract_x
 _atom_site_fract_y
 _atom_site_fract_z
 _atom_site_occupancy
  Re  Re0  1  0.693277  0.545288  0.091644  1
  Re  Re1  1  0.453643  0.601633  0.908356  1
  Re  Re2  1  0.398367  0.306723  0.852010  1
  Re  Re3  1  0.454712  0.546357  0.147990  1
  Te  Te4  1  0.923940  0.437524  0.098074  1
  Te  Te5  1  0.339450  0.825866  0.901926  1
  Te  Te6  1  0.174134  0.076060  0.513584  1
  Te  Te7  1  0.562476  0.660550  0.486416  1
  S  S8  1  0.555999  0.429910  0.797567  1
  S  S9  1  0.632343  0.758432  0.202433  1
  S  S10  1  0.241568  0.444001  0.873911  1
  S  S11  1  0.570090  0.367657  0.126089  1
  Cl  Cl12  1  0.865466  0.304218  0.815544  1
  Cl  Cl13  1  0.488674  0.049922  0.184456  1
  Cl  Cl14  1  0.950078  0.134534  0.438752  1
  Cl  Cl15  1  0.695782  0.511326  0.561248  1
  Cl  Cl16  1  0.898503  0.702093  0.093442  1
  Cl  Cl17  1  0.608650  0.805061  0.906558  1
  Cl  Cl18  1  0.194939  0.101497  0.803590  1
  Cl  Cl19  1  0.297907  0.391350  0.196410  1
  Cl  Cl20  1  0.913201  0.648420  0.380060  1
  Cl  Cl21  1  0.268360  0.533141  0.619940  1
  Cl  Cl22  1  0.466859  0.086799  0.735219  1
  Cl  Cl23  1  0.351580  0.731640  0.264781  1
  Cl  Cl24  1  0.878062  0.216224  0.115436  1
  Cl  Cl25  1  0.100787  0.762625  0.884564  1
  Cl  Cl26  1  0.237375  0.121938  0.338162  1
  Cl  Cl27  1  0.783776  0.899213  0.661838  1
