# generated using pymatgen
data_Mn3(O2F)2
_symmetry_space_group_name_H-M   'P 1'
_cell_length_a   5.54566757
_cell_length_b   5.54907779
_cell_length_c   7.39034726
_cell_angle_alpha   71.49634835
_cell_angle_beta   71.34834993
_cell_angle_gamma   70.93303650
_symmetry_Int_Tables_number   1
_chemical_formula_structural   Mn3(O2F)2
_chemical_formula_sum   'Mn6 O8 F4'
_cell_volume   197.82066792
_cell_formula_units_Z   2
loop_
 _symmetry_equiv_pos_site_id
 _symmetry_equiv_pos_as_xyz
  1  'x, y, z'
loop_
 _atom_site_type_symbol
 _atom_site_label
 _atom_site_symmetry_multiplicity
 _atom_site_fract_x
 _atom_site_fract_y
 _atom_site_fract_z
 _atom_site_occupancy
  Mn  Mn0  1  0.309297  0.319055  0.162175  1
  Mn  Mn1  1  0.657882  0.668147  0.328472  1
  Mn  Mn2  1  0.341136  0.353185  0.682102  1
  Mn  Mn3  1  0.671770  0.683491  0.829248  1
  Mn  Mn4  1  0.996655  0.008405  0.503246  1
  Mn  Mn5  1  0.020592  0.971356  0.998917  1
  O  O6  1  0.349889  0.973097  0.330419  1
  O  O7  1  0.028915  0.650085  0.668173  1
  O  O8  1  0.773685  0.765237  0.038580  1
  O  O9  1  0.229083  0.219792  0.965167  1
  O  O10  1  0.569491  0.570935  0.625259  1
  O  O11  1  0.639149  0.040814  0.668831  1
  O  O12  1  0.963091  0.361779  0.331510  1
  O  O13  1  0.318881  0.674793  0.000656  1
  F  F14  1  0.115234  0.126086  0.691041  1
  F  F15  1  0.422527  0.423239  0.369512  1
  F  F16  1  0.888389  0.900798  0.306466  1
  F  F17  1  0.704332  0.289708  0.000228  1
