# generated using pymatgen
data_Li2FeF4
_symmetry_space_group_name_H-M   'P 1'
_cell_length_a   5.63266502
_cell_length_b   5.37266913
_cell_length_c   5.86708696
_cell_angle_alpha   90.00000000
_cell_angle_beta   118.45425268
_cell_angle_gamma   90.00000000
_symmetry_Int_Tables_number   1
_chemical_formula_structural   Li2FeF4
_chemical_formula_sum   'Li4 Fe2 F8'
_cell_volume   156.10368176
_cell_formula_units_Z   2
loop_
 _symmetry_equiv_pos_site_id
 _symmetry_equiv_pos_as_xyz
  1  'x, y, z'
loop_
 _atom_site_type_symbol
 _atom_site_label
 _atom_site_symmetry_multiplicity
 _atom_site_fract_x
 _atom_site_fract_y
 _atom_site_fract_z
 _atom_site_occupancy
  Li  Li0  1  0.347154  0.652902  0.822473  1
  Li  Li1  1  0.127603  0.702947  0.180540  1
  Li  Li2  1  0.872397  0.202947  0.819460  1
  Li  Li3  1  0.652846  0.152902  0.177527  1
  Fe  Fe4  1  0.254955  0.172162  0.503115  1
  Fe  Fe5  1  0.745045  0.672162  0.496885  1
  F  F6  1  0.989351  0.999801  0.621132  1
  F  F7  1  0.015178  0.534471  0.855088  1
  F  F8  1  0.506690  0.322198  0.852807  1
  F  F9  1  0.459020  0.824399  0.596949  1
  F  F10  1  0.540980  0.324399  0.403051  1
  F  F11  1  0.493310  0.822198  0.147193  1
  F  F12  1  0.984822  0.034471  0.144912  1
  F  F13  1  0.010649  0.499801  0.378868  1
