# generated using pymatgen
data_Li3Fe2(SiO4)2
_symmetry_space_group_name_H-M   'P 1'
_cell_length_a   5.03299537
_cell_length_b   5.31562266
_cell_length_c   6.72296038
_cell_angle_alpha   91.27383737
_cell_angle_beta   90.81765441
_cell_angle_gamma   90.22411991
_symmetry_Int_Tables_number   1
_chemical_formula_structural   Li3Fe2(SiO4)2
_chemical_formula_sum   'Li3 Fe2 Si2 O8'
_cell_volume   179.79837950
_cell_formula_units_Z   1
loop_
 _symmetry_equiv_pos_site_id
 _symmetry_equiv_pos_as_xyz
  1  'x, y, z'
loop_
 _atom_site_type_symbol
 _atom_site_label
 _atom_site_symmetry_multiplicity
 _atom_site_fract_x
 _atom_site_fract_y
 _atom_site_fract_z
 _atom_site_occupancy
  Li  Li0  1  0.490931  0.160024  0.508694  1
  Li  Li1  1  0.493882  0.649453  0.289490  1
  Li  Li2  1  0.994493  0.843594  0.509265  1
  Fe  Fe3  1  0.496291  0.183872  0.988716  1
  Fe  Fe4  1  0.013477  0.797538  0.002064  1
  Si  Si5  1  0.004796  0.320869  0.259121  1
  Si  Si6  1  0.483966  0.681132  0.737362  1
  O  O7  1  0.111208  0.175359  0.448710  1
  O  O8  1  0.124681  0.179782  0.051078  1
  O  O9  1  0.671281  0.308222  0.228624  1
  O  O10  1  0.558086  0.380070  0.765426  1
  O  O11  1  0.096184  0.620284  0.252700  1
  O  O12  1  0.166010  0.729551  0.744544  1
  O  O13  1  0.602055  0.833331  0.950028  1
  O  O14  1  0.609037  0.797820  0.538890  1
