# generated using pymatgen
data_Li8Mn3Fe5(BO3)8
_symmetry_space_group_name_H-M   'P 1'
_cell_length_a   5.23737881
_cell_length_b   6.06645439
_cell_length_c   16.14968777
_cell_angle_alpha   81.76241014
_cell_angle_beta   89.15731455
_cell_angle_gamma   88.69890280
_symmetry_Int_Tables_number   1
_chemical_formula_structural   Li8Mn3Fe5(BO3)8
_chemical_formula_sum   'Li8 Mn3 Fe5 B8 O24'
_cell_volume   507.65402238
_cell_formula_units_Z   1
loop_
 _symmetry_equiv_pos_site_id
 _symmetry_equiv_pos_as_xyz
  1  'x, y, z'
loop_
 _atom_site_type_symbol
 _atom_site_label
 _atom_site_symmetry_multiplicity
 _atom_site_fract_x
 _atom_site_fract_y
 _atom_site_fract_z
 _atom_site_occupancy
  Li  Li0  1  0.846813  0.064219  0.389469  1
  Li  Li1  1  0.152047  0.435367  0.111205  1
  Li  Li2  1  0.652599  0.188150  0.859942  1
  Li  Li3  1  0.348317  0.312885  0.639248  1
  Li  Li4  1  0.652531  0.688293  0.357234  1
  Li  Li5  1  0.347492  0.811673  0.142867  1
  Li  Li6  1  0.846664  0.562547  0.890833  1
  Li  Li7  1  0.151682  0.936469  0.608098  1
  Mn  Mn8  1  0.167068  0.022782  0.789702  1
  Mn  Mn9  1  0.667774  0.772114  0.541160  1
  Mn  Mn10  1  0.332966  0.725069  0.960666  1
  Fe  Fe11  1  0.662958  0.270036  0.042227  1
  Fe  Fe12  1  0.337068  0.228803  0.458208  1
  Fe  Fe13  1  0.162654  0.521911  0.293380  1
  Fe  Fe14  1  0.838637  0.475487  0.709995  1
  Fe  Fe15  1  0.837361  0.977267  0.207006  1
  B  B16  1  0.328756  0.039379  0.297023  1
  B  B17  1  0.828303  0.287694  0.547272  1
  B  B18  1  0.670707  0.461251  0.203018  1
  B  B19  1  0.171942  0.213000  0.953633  1
  B  B20  1  0.830309  0.785747  0.048471  1
  B  B21  1  0.329072  0.537404  0.796596  1
  B  B22  1  0.169635  0.714183  0.451550  1
  B  B23  1  0.670430  0.963687  0.702601  1
  O  O24  1  0.588893  0.013500  0.307454  1
  O  O25  1  0.183060  0.169803  0.345951  1
  O  O26  1  0.703278  0.176422  0.489979  1
  O  O27  1  0.296301  0.326287  0.010639  1
  O  O28  1  0.785680  0.081375  0.759444  1
  O  O29  1  0.815463  0.329552  0.154225  1
  O  O30  1  0.318162  0.081968  0.905544  1
  O  O31  1  0.088994  0.262729  0.557271  1
  O  O32  1  0.410027  0.486858  0.192705  1
  O  O33  1  0.911934  0.238076  0.942682  1
  O  O34  1  0.683996  0.417536  0.596636  1
  O  O35  1  0.207220  0.423742  0.739012  1
  O  O36  1  0.796753  0.574899  0.258979  1
  O  O37  1  0.318120  0.581416  0.403967  1
  O  O38  1  0.090242  0.763369  0.061847  1
  O  O39  1  0.589026  0.513242  0.808138  1
  O  O40  1  0.909302  0.736703  0.438894  1
  O  O41  1  0.680586  0.917963  0.095743  1
  O  O42  1  0.181338  0.667500  0.844432  1
  O  O43  1  0.203255  0.926961  0.240352  1
  O  O44  1  0.714476  0.671747  0.990856  1
  O  O45  1  0.287603  0.827855  0.508669  1
  O  O46  1  0.821445  0.828862  0.656852  1
  O  O47  1  0.411057  0.986224  0.688323  1
