# generated using pymatgen
data_Li2V2P2(H4O5)3
_symmetry_space_group_name_H-M   'P 1'
_cell_length_a   11.48018849
_cell_length_b   11.48018849
_cell_length_c   10.51878892
_cell_angle_alpha   78.89141340
_cell_angle_beta   101.10858660
_cell_angle_gamma   154.52869431
_symmetry_Int_Tables_number   1
_chemical_formula_structural   Li2V2P2(H4O5)3
_chemical_formula_sum   'Li4 V4 P4 H24 O30'
_cell_volume   584.45295148
_cell_formula_units_Z   2
loop_
 _symmetry_equiv_pos_site_id
 _symmetry_equiv_pos_as_xyz
  1  'x, y, z'
loop_
 _atom_site_type_symbol
 _atom_site_label
 _atom_site_symmetry_multiplicity
 _atom_site_fract_x
 _atom_site_fract_y
 _atom_site_fract_z
 _atom_site_occupancy
  Li  Li0  1  0.399590  0.922022  0.864276  1
  Li  Li1  1  0.922022  0.399590  0.635724  1
  Li  Li2  1  0.077978  0.600410  0.364276  1
  Li  Li3  1  0.600410  0.077978  0.135724  1
  V  V4  1  0.267951  0.018150  0.971460  1
  V  V5  1  0.981850  0.732049  0.471460  1
  V  V6  1  0.018150  0.267951  0.528540  1
  V  V7  1  0.732049  0.981850  0.028540  1
  P  P8  1  0.823684  0.508130  0.774079  1
  P  P9  1  0.491870  0.176316  0.274079  1
  P  P10  1  0.508130  0.823684  0.725921  1
  P  P11  1  0.176316  0.491870  0.225921  1
  H  H12  1  0.458906  0.414294  0.852800  1
  H  H13  1  0.820829  0.744098  0.767886  1
  H  H14  1  0.585706  0.541094  0.352800  1
  H  H15  1  0.148064  0.962348  0.675051  1
  H  H16  1  0.255902  0.179171  0.267886  1
  H  H17  1  0.037652  0.851936  0.175051  1
  H  H18  1  0.418316  0.212505  0.594815  1
  H  H19  1  0.787495  0.581684  0.094815  1
  H  H20  1  0.878590  0.321816  0.916061  1
  H  H21  1  0.321816  0.878590  0.583939  1
  H  H22  1  0.678184  0.121410  0.416061  1
  H  H23  1  0.121410  0.678184  0.083939  1
  H  H24  1  0.212505  0.418316  0.905185  1
  H  H25  1  0.581684  0.787495  0.405185  1
  H  H26  1  0.962348  0.148064  0.824949  1
  H  H27  1  0.744098  0.820829  0.732114  1
  H  H28  1  0.851936  0.037652  0.324949  1
  H  H29  1  0.414294  0.458906  0.647200  1
  H  H30  1  0.206582  0.209035  0.934232  1
  H  H31  1  0.179171  0.255902  0.232114  1
  H  H32  1  0.209035  0.206582  0.565768  1
  H  H33  1  0.541094  0.585706  0.147200  1
  H  H34  1  0.790965  0.793418  0.434232  1
  H  H35  1  0.793418  0.790965  0.065768  1
  O  O36  1  0.311713  0.240179  0.907792  1
  O  O37  1  0.759821  0.688287  0.407792  1
  O  O38  1  0.214740  0.046302  0.584553  1
  O  O39  1  0.988036  0.764632  0.813988  1
  O  O40  1  0.953698  0.785260  0.084553  1
  O  O41  1  0.733226  0.470476  0.626333  1
  O  O42  1  0.235368  0.011964  0.313988  1
  O  O43  1  0.563803  0.250227  0.849471  1
  O  O44  1  0.529524  0.266774  0.126333  1
  O  O45  1  0.749773  0.436197  0.349471  1
  O  O46  1  0.004548  0.561117  0.789345  1
  O  O47  1  0.164713  0.750396  0.524487  1
  O  O48  1  0.438883  0.995452  0.289345  1
  O  O49  1  0.750396  0.164713  0.975513  1
  O  O50  1  0.249604  0.835287  0.024487  1
  O  O51  1  0.561117  0.004548  0.710655  1
  O  O52  1  0.835287  0.249604  0.475513  1
  O  O53  1  0.995452  0.438883  0.210655  1
  O  O54  1  0.250227  0.563803  0.650529  1
  O  O55  1  0.470476  0.733226  0.873667  1
  O  O56  1  0.436197  0.749773  0.150529  1
  O  O57  1  0.764632  0.988036  0.686012  1
  O  O58  1  0.266774  0.529524  0.373667  1
  O  O59  1  0.046302  0.214740  0.915447  1
  O  O60  1  0.011964  0.235368  0.186012  1
  O  O61  1  0.785260  0.953698  0.415447  1
  O  O62  1  0.240179  0.311713  0.592208  1
  O  O63  1  0.670992  0.670992  0.750000  1
  O  O64  1  0.688287  0.759821  0.092208  1
  O  O65  1  0.329008  0.329008  0.250000  1
