# generated using pymatgen
data_LiFeCoO4
_symmetry_space_group_name_H-M   'P 1'
_cell_length_a   5.84719763
_cell_length_b   5.84719763
_cell_length_c   5.84719763
_cell_angle_alpha   120.71606619
_cell_angle_beta   118.54552686
_cell_angle_gamma   90.65084139
_symmetry_Int_Tables_number   1
_chemical_formula_structural   LiFeCoO4
_chemical_formula_sum   'Li2 Fe2 Co2 O8'
_cell_volume   142.07664620
_cell_formula_units_Z   2
loop_
 _symmetry_equiv_pos_site_id
 _symmetry_equiv_pos_as_xyz
  1  'x, y, z'
loop_
 _atom_site_type_symbol
 _atom_site_label
 _atom_site_symmetry_multiplicity
 _atom_site_fract_x
 _atom_site_fract_y
 _atom_site_fract_z
 _atom_site_occupancy
  Li  Li0  1  0.000000  0.500000  0.500000  1
  Li  Li1  1  0.500000  0.500000  0.000000  1
  Fe  Fe2  1  0.000000  0.000000  0.000000  1
  Fe  Fe3  1  0.500000  0.000000  0.500000  1
  Co  Co4  1  0.000000  0.000000  0.500000  1
  Co  Co5  1  1.000000  0.500000  1.000000  1
  O  O6  1  0.211732  0.752961  0.458771  1
  O  O7  1  0.229191  0.217740  0.488550  1
  O  O8  1  0.205810  0.247039  0.958771  1
  O  O9  1  0.229191  0.740641  0.011450  1
  O  O10  1  0.770809  0.259359  0.988550  1
  O  O11  1  0.794190  0.752961  0.041229  1
  O  O12  1  0.770809  0.782260  0.511450  1
  O  O13  1  0.788268  0.247039  0.541229  1
