# generated using pymatgen
data_S(OF)2
_symmetry_space_group_name_H-M   'P 1'
_cell_length_a   5.39422234
_cell_length_b   5.39422234
_cell_length_c   12.09227032
_cell_angle_alpha   90.00000000
_cell_angle_beta   90.00000000
_cell_angle_gamma   90.00000000
_symmetry_Int_Tables_number   1
_chemical_formula_structural   S(OF)2
_chemical_formula_sum   'S4 O8 F8'
_cell_volume   351.85646390
_cell_formula_units_Z   4
loop_
 _symmetry_equiv_pos_site_id
 _symmetry_equiv_pos_as_xyz
  1  'x, y, z'
loop_
 _atom_site_type_symbol
 _atom_site_label
 _atom_site_symmetry_multiplicity
 _atom_site_fract_x
 _atom_site_fract_y
 _atom_site_fract_z
 _atom_site_occupancy
  S  S0  1  0.920081  0.920081  0.500000  1
  S  S1  1  0.579919  0.420081  0.750000  1
  S  S2  1  0.420081  0.579919  0.250000  1
  S  S3  1  0.079919  0.079919  0.000000  1
  O  O4  1  0.988386  0.679912  0.463566  1
  O  O5  1  0.011614  0.320088  0.963566  1
  O  O6  1  0.679912  0.988386  0.536434  1
  O  O7  1  0.179912  0.511614  0.213566  1
  O  O8  1  0.488386  0.820088  0.286434  1
  O  O9  1  0.320088  0.011614  0.036434  1
  O  O10  1  0.820088  0.488386  0.713566  1
  O  O11  1  0.511614  0.179912  0.786434  1
  F  F12  1  0.611457  0.494932  0.159715  1
  F  F13  1  0.111457  0.005068  0.590285  1
  F  F14  1  0.994932  0.888543  0.909715  1
  F  F15  1  0.005068  0.111457  0.409715  1
  F  F16  1  0.505068  0.388543  0.340285  1
  F  F17  1  0.888543  0.994932  0.090285  1
  F  F18  1  0.388543  0.505068  0.659715  1
  F  F19  1  0.494932  0.611457  0.840285  1
