# generated using pymatgen
data_FeOF
_symmetry_space_group_name_H-M   'P 1'
_cell_length_a   4.77175497
_cell_length_b   5.68002364
_cell_length_c   7.80676949
_cell_angle_alpha   85.04949070
_cell_angle_beta   87.18793045
_cell_angle_gamma   85.99724310
_symmetry_Int_Tables_number   1
_chemical_formula_structural   FeOF
_chemical_formula_sum   'Fe6 O6 F6'
_cell_volume   210.09140041
_cell_formula_units_Z   6
loop_
 _symmetry_equiv_pos_site_id
 _symmetry_equiv_pos_as_xyz
  1  'x, y, z'
loop_
 _atom_site_type_symbol
 _atom_site_label
 _atom_site_symmetry_multiplicity
 _atom_site_fract_x
 _atom_site_fract_y
 _atom_site_fract_z
 _atom_site_occupancy
  Fe  Fe0  1  0.521006  0.868903  0.674449  1
  Fe  Fe1  1  0.480318  0.501553  0.014732  1
  Fe  Fe2  1  0.503651  0.159814  0.325974  1
  Fe  Fe3  1  0.005463  0.306564  0.661095  1
  Fe  Fe4  1  0.002462  0.670751  0.340845  1
  Fe  Fe5  1  0.985824  0.996257  0.986949  1
  O  O6  1  0.811348  0.043373  0.767471  1
  O  O7  1  0.697956  0.205932  0.098843  1
  O  O8  1  0.700663  0.865526  0.433954  1
  O  O9  1  0.306894  0.131912  0.556605  1
  O  O10  1  0.293459  0.464897  0.238901  1
  O  O11  1  0.311728  0.796171  0.900283  1
  F  F12  1  0.798944  0.373907  0.439579  1
  F  F13  1  0.807701  0.700004  0.102306  1
  F  F14  1  0.703976  0.533953  0.766494  1
  F  F15  1  0.191569  0.959466  0.225740  1
  F  F16  1  0.181728  0.619863  0.571640  1
  F  F17  1  0.195311  0.301152  0.894138  1
