# generated using pymatgen
data_LiMn4(PO4)3
_symmetry_space_group_name_H-M   'P 1'
_cell_length_a   9.00377842
_cell_length_b   9.00377842
_cell_length_c   6.73154149
_cell_angle_alpha   72.87411452
_cell_angle_beta   107.12588548
_cell_angle_gamma   85.35352544
_symmetry_Int_Tables_number   1
_chemical_formula_structural   LiMn4(PO4)3
_chemical_formula_sum   'Li2 Mn8 P6 O24'
_cell_volume   489.91552097
_cell_formula_units_Z   2
loop_
 _symmetry_equiv_pos_site_id
 _symmetry_equiv_pos_as_xyz
  1  'x, y, z'
loop_
 _atom_site_type_symbol
 _atom_site_label
 _atom_site_symmetry_multiplicity
 _atom_site_fract_x
 _atom_site_fract_y
 _atom_site_fract_z
 _atom_site_occupancy
  Li  Li0  1  0.999145  0.999145  0.250000  1
  Li  Li1  1  0.000855  0.000855  0.750000  1
  Mn  Mn2  1  0.939243  0.368850  0.371640  1
  Mn  Mn3  1  0.631150  0.060757  0.871640  1
  Mn  Mn4  1  0.502514  0.502514  0.250000  1
  Mn  Mn5  1  0.261252  0.261252  0.250000  1
  Mn  Mn6  1  0.497486  0.497486  0.750000  1
  Mn  Mn7  1  0.738748  0.738748  0.750000  1
  Mn  Mn8  1  0.368850  0.939243  0.128360  1
  Mn  Mn9  1  0.060757  0.631150  0.628360  1
  P  P10  1  0.666097  0.114014  0.379375  1
  P  P11  1  0.885986  0.333903  0.879375  1
  P  P12  1  0.711522  0.711522  0.250000  1
  P  P13  1  0.288478  0.288478  0.750000  1
  P  P14  1  0.114014  0.666097  0.120625  1
  P  P15  1  0.333903  0.885986  0.620625  1
  O  O16  1  0.834216  0.153832  0.400328  1
  O  O17  1  0.605102  0.045190  0.193049  1
  O  O18  1  0.846168  0.165784  0.900328  1
  O  O19  1  0.954810  0.394898  0.693049  1
  O  O20  1  0.319328  0.006963  0.392170  1
  O  O21  1  0.730618  0.537142  0.245842  1
  O  O22  1  0.537864  0.263266  0.331603  1
  O  O23  1  0.736928  0.816366  0.040307  1
  O  O24  1  0.816366  0.736928  0.459693  1
  O  O25  1  0.993037  0.680672  0.892170  1
  O  O26  1  0.462858  0.269382  0.745842  1
  O  O27  1  0.736734  0.462136  0.831603  1
  O  O28  1  0.263266  0.537864  0.168397  1
  O  O29  1  0.537142  0.730618  0.254158  1
  O  O30  1  0.006963  0.319328  0.107830  1
  O  O31  1  0.183634  0.263072  0.540307  1
  O  O32  1  0.263072  0.183634  0.959693  1
  O  O33  1  0.462136  0.736734  0.668397  1
  O  O34  1  0.269382  0.462858  0.754158  1
  O  O35  1  0.680672  0.993036  0.607830  1
  O  O36  1  0.045190  0.605102  0.306951  1
  O  O37  1  0.153832  0.834216  0.099672  1
  O  O38  1  0.394898  0.954810  0.806951  1
  O  O39  1  0.165784  0.846168  0.599672  1
