# generated using pymatgen
data_LiFe2(SiO4)2
_symmetry_space_group_name_H-M   'P 1'
_cell_length_a   10.90735918
_cell_length_b   10.90735918
_cell_length_c   11.84825802
_cell_angle_alpha   90.00000000
_cell_angle_beta   90.00000000
_cell_angle_gamma   120.00000000
_symmetry_Int_Tables_number   1
_chemical_formula_structural   LiFe2(SiO4)2
_chemical_formula_sum   'Li6 Fe12 Si12 O48'
_cell_volume   1220.74334188
_cell_formula_units_Z   6
loop_
 _symmetry_equiv_pos_site_id
 _symmetry_equiv_pos_as_xyz
  1  'x, y, z'
loop_
 _atom_site_type_symbol
 _atom_site_label
 _atom_site_symmetry_multiplicity
 _atom_site_fract_x
 _atom_site_fract_y
 _atom_site_fract_z
 _atom_site_occupancy
  Li  Li0  1  0.500000  0.500000  0.166667  1
  Li  Li1  1  0.000000  0.000000  0.000000  1
  Li  Li2  1  0.000000  0.000000  0.333333  1
  Li  Li3  1  0.000000  0.000000  0.666667  1
  Li  Li4  1  0.000000  0.500000  0.833333  1
  Li  Li5  1  0.500000  0.000000  0.500000  1
  Fe  Fe6  1  0.746677  0.746677  0.666667  1
  Fe  Fe7  1  0.000000  0.746677  0.333333  1
  Fe  Fe8  1  0.253323  0.253323  0.666667  1
  Fe  Fe9  1  0.749000  0.497999  0.000000  1
  Fe  Fe10  1  0.251000  0.749000  0.666667  1
  Fe  Fe11  1  0.502001  0.251000  0.333333  1
  Fe  Fe12  1  0.497999  0.749000  0.333333  1
  Fe  Fe13  1  0.749000  0.251000  0.666667  1
  Fe  Fe14  1  0.251000  0.502001  0.000000  1
  Fe  Fe15  1  0.253323  0.000000  0.000000  1
  Fe  Fe16  1  0.000000  0.253323  0.333333  1
  Fe  Fe17  1  0.746677  0.000000  0.000000  1
  Si  Si18  1  0.753877  0.753877  0.166667  1
  Si  Si19  1  0.000000  0.753877  0.833333  1
  Si  Si20  1  0.752011  0.504022  0.500000  1
  Si  Si21  1  0.247989  0.752011  0.166667  1
  Si  Si22  1  0.246123  0.246123  0.166667  1
  Si  Si23  1  0.495978  0.247989  0.833333  1
  Si  Si24  1  0.504022  0.752011  0.833333  1
  Si  Si25  1  0.246123  0.000000  0.500000  1
  Si  Si26  1  0.752011  0.247989  0.166667  1
  Si  Si27  1  0.247989  0.495978  0.500000  1
  Si  Si28  1  0.000000  0.246123  0.833333  1
  Si  Si29  1  0.753877  0.000000  0.500000  1
  O  O30  1  0.885143  0.806409  0.257366  1
  O  O31  1  0.114857  0.921266  0.409301  1
  O  O32  1  0.921266  0.806409  0.742634  1
  O  O33  1  0.078734  0.885143  0.924032  1
  O  O34  1  0.702317  0.600960  0.568216  1
  O  O35  1  0.297683  0.898643  0.098450  1
  O  O36  1  0.709089  0.602966  0.103667  1
  O  O37  1  0.290911  0.893877  0.562999  1
  O  O38  1  0.893877  0.602966  0.896333  1
  O  O39  1  0.106123  0.709089  0.770334  1
  O  O40  1  0.898643  0.600960  0.431784  1
  O  O41  1  0.101357  0.702317  0.234883  1
  O  O42  1  0.618485  0.411047  0.416091  1
  O  O43  1  0.381515  0.792562  0.250576  1
  O  O44  1  0.399040  0.297683  0.765117  1
  O  O45  1  0.600960  0.898643  0.901550  1
  O  O46  1  0.397034  0.290911  0.229666  1
  O  O47  1  0.602966  0.893877  0.437001  1
  O  O48  1  0.588953  0.381515  0.917243  1
  O  O49  1  0.411047  0.792562  0.749424  1
  O  O50  1  0.193591  0.114857  0.075968  1
  O  O51  1  0.806409  0.921266  0.590699  1
  O  O52  1  0.792562  0.411047  0.583909  1
  O  O53  1  0.207438  0.618485  0.082757  1
  O  O54  1  0.792562  0.381515  0.082757  1
  O  O55  1  0.207438  0.588953  0.583909  1
  O  O56  1  0.193591  0.078734  0.590699  1
  O  O57  1  0.806409  0.885143  0.075968  1
  O  O58  1  0.588953  0.207438  0.749424  1
  O  O59  1  0.411047  0.618485  0.917243  1
  O  O60  1  0.397034  0.106123  0.437001  1
  O  O61  1  0.602966  0.709089  0.229666  1
  O  O62  1  0.399040  0.101357  0.901550  1
  O  O63  1  0.600960  0.702317  0.765117  1
  O  O64  1  0.618485  0.207438  0.250576  1
  O  O65  1  0.381515  0.588953  0.416091  1
  O  O66  1  0.898643  0.297683  0.234883  1
  O  O67  1  0.101357  0.399040  0.431784  1
  O  O68  1  0.893877  0.290911  0.770334  1
  O  O69  1  0.106123  0.397034  0.896333  1
  O  O70  1  0.709089  0.106123  0.562999  1
  O  O71  1  0.290911  0.397034  0.103667  1
  O  O72  1  0.702317  0.101357  0.098450  1
  O  O73  1  0.297683  0.399040  0.568216  1
  O  O74  1  0.921266  0.114857  0.924032  1
  O  O75  1  0.078734  0.193591  0.742634  1
  O  O76  1  0.885143  0.078734  0.409301  1
  O  O77  1  0.114857  0.193591  0.257366  1
