# generated using pymatgen
data_AcIn3
_symmetry_space_group_name_H-M   'P 1'
_cell_length_a   7.21638867
_cell_length_b   7.21638867
_cell_length_c   5.25191822
_cell_angle_alpha   90.00000000
_cell_angle_beta   90.00000000
_cell_angle_gamma   120.00000000
_symmetry_Int_Tables_number   1
_chemical_formula_structural   AcIn3
_chemical_formula_sum   'Ac2 In6'
_cell_volume   236.85819681
_cell_formula_units_Z   2
loop_
 _symmetry_equiv_pos_site_id
 _symmetry_equiv_pos_as_xyz
  1  'x, y, z'
loop_
 _atom_site_type_symbol
 _atom_site_label
 _atom_site_symmetry_multiplicity
 _atom_site_fract_x
 _atom_site_fract_y
 _atom_site_fract_z
 _atom_site_occupancy
  Ac  Ac0  1  0.333333  0.666667  0.750000  1
  Ac  Ac1  1  0.666667  0.333333  0.250000  1
  In  In2  1  0.149322  0.298644  0.250000  1
  In  In3  1  0.701356  0.850678  0.250000  1
  In  In4  1  0.149322  0.850678  0.250000  1
  In  In5  1  0.850678  0.701356  0.750000  1
  In  In6  1  0.298644  0.149322  0.750000  1
  In  In7  1  0.850678  0.149322  0.750000  1
