# generated using pymatgen
data_Ca6Sn5S16
_symmetry_space_group_name_H-M   'P 1'
_cell_length_a   26.85326483
_cell_length_b   26.85326483
_cell_length_c   26.85326483
_cell_angle_alpha   169.31116263
_cell_angle_beta   169.31116263
_cell_angle_gamma   15.13838280
_symmetry_Int_Tables_number   1
_chemical_formula_structural   Ca6Sn5S16
_chemical_formula_sum   'Ca6 Sn5 S16'
_cell_volume   666.11042505
_cell_formula_units_Z   1
loop_
 _symmetry_equiv_pos_site_id
 _symmetry_equiv_pos_as_xyz
  1  'x, y, z'
loop_
 _atom_site_type_symbol
 _atom_site_label
 _atom_site_symmetry_multiplicity
 _atom_site_fract_x
 _atom_site_fract_y
 _atom_site_fract_z
 _atom_site_occupancy
  Ca  Ca0  1  0.545730  0.545730  0.000000  1
  Ca  Ca1  1  0.454270  0.454270  0.000000  1
  Ca  Ca2  1  0.631846  0.631846  0.000000  1
  Ca  Ca3  1  0.368154  0.368154  0.000000  1
  Ca  Ca4  1  0.713161  0.713161  0.000000  1
  Ca  Ca5  1  0.286839  0.286839  0.000000  1
  Sn  Sn6  1  0.000000  0.000000  0.000000  1
  Sn  Sn7  1  0.094474  0.094474  0.000000  1
  Sn  Sn8  1  0.905526  0.905526  0.000000  1
  Sn  Sn9  1  0.190879  0.190879  0.000000  1
  Sn  Sn10  1  0.809121  0.809121  0.000000  1
  S  S11  1  0.046536  0.046536  0.000000  1
  S  S12  1  0.953464  0.953464  0.000000  1
  S  S13  1  0.139868  0.139868  0.000000  1
  S  S14  1  0.860132  0.860132  0.000000  1
  S  S15  1  0.235317  0.235317  0.000000  1
  S  S16  1  0.764683  0.764683  0.000000  1
  S  S17  1  0.180263  0.680263  0.500000  1
  S  S18  1  0.319737  0.819737  0.500000  1
  S  S19  1  0.819737  0.319737  0.500000  1
  S  S20  1  0.680263  0.180263  0.500000  1
  S  S21  1  0.089957  0.589957  0.500000  1
  S  S22  1  0.410043  0.910043  0.500000  1
  S  S23  1  0.910043  0.410043  0.500000  1
  S  S24  1  0.589957  0.089957  0.500000  1
  S  S25  1  1.000000  0.500000  0.500000  1
  S  S26  1  0.500000  0.000000  0.500000  1
