# generated using pymatgen
data_La3Te4
_symmetry_space_group_name_H-M   'P 1'
_cell_length_a   8.38844725
_cell_length_b   8.38844725
_cell_length_c   8.38844725
_cell_angle_alpha   109.47122063
_cell_angle_beta   109.47122063
_cell_angle_gamma   109.47122063
_symmetry_Int_Tables_number   1
_chemical_formula_structural   La3Te4
_chemical_formula_sum   'La6 Te8'
_cell_volume   454.38380371
_cell_formula_units_Z   2
loop_
 _symmetry_equiv_pos_site_id
 _symmetry_equiv_pos_as_xyz
  1  'x, y, z'
loop_
 _atom_site_type_symbol
 _atom_site_label
 _atom_site_symmetry_multiplicity
 _atom_site_fract_x
 _atom_site_fract_y
 _atom_site_fract_z
 _atom_site_occupancy
  La  La0  1  0.750000  0.875000  0.125000  1
  La  La1  1  0.625000  0.375000  0.250000  1
  La  La2  1  0.875000  0.125000  0.750000  1
  La  La3  1  0.125000  0.750000  0.875000  1
  La  La4  1  0.375000  0.250000  0.625000  1
  La  La5  1  0.250000  0.625000  0.375000  1
  Te  Te6  1  0.652394  0.652394  0.652394  1
  Te  Te7  1  0.347606  0.500000  1.000000  1
  Te  Te8  1  0.500000  0.000000  0.347606  1
  Te  Te9  1  0.000000  0.347606  0.500000  1
  Te  Te10  1  0.500000  1.000000  0.847606  1
  Te  Te11  1  1.000000  0.847606  0.500000  1
  Te  Te12  1  0.152394  0.152394  0.152394  1
  Te  Te13  1  0.847606  0.500000  1.000000  1
