# generated using pymatgen
data_MnCo3O8
_symmetry_space_group_name_H-M   'P 1'
_cell_length_a   8.04414035
_cell_length_b   8.04414035
_cell_length_c   8.04414035
_cell_angle_alpha   90.00000000
_cell_angle_beta   90.00000000
_cell_angle_gamma   90.00000000
_symmetry_Int_Tables_number   1
_chemical_formula_structural   MnCo3O8
_chemical_formula_sum   'Mn4 Co12 O32'
_cell_volume   520.52179505
_cell_formula_units_Z   4
loop_
 _symmetry_equiv_pos_site_id
 _symmetry_equiv_pos_as_xyz
  1  'x, y, z'
loop_
 _atom_site_type_symbol
 _atom_site_label
 _atom_site_symmetry_multiplicity
 _atom_site_fract_x
 _atom_site_fract_y
 _atom_site_fract_z
 _atom_site_occupancy
  Mn  Mn0  1  0.125000  0.125000  0.125000  1
  Mn  Mn1  1  0.375000  0.875000  0.625000  1
  Mn  Mn2  1  0.625000  0.375000  0.875000  1
  Mn  Mn3  1  0.875000  0.625000  0.375000  1
  Co  Co4  1  0.123163  0.873163  0.875000  1
  Co  Co5  1  0.125000  0.623163  0.626837  1
  Co  Co6  1  0.126837  0.375000  0.376837  1
  Co  Co7  1  0.373163  0.625000  0.876837  1
  Co  Co8  1  0.375000  0.376837  0.126837  1
  Co  Co9  1  0.376837  0.126837  0.375000  1
  Co  Co10  1  0.623163  0.626837  0.125000  1
  Co  Co11  1  0.625000  0.876837  0.373163  1
  Co  Co12  1  0.626837  0.125000  0.623163  1
  Co  Co13  1  0.873163  0.875000  0.123163  1
  Co  Co14  1  0.875000  0.123163  0.873163  1
  Co  Co15  1  0.876837  0.373163  0.625000  1
  O  O16  1  0.106542  0.885613  0.109133  1
  O  O17  1  0.109133  0.106542  0.885613  1
  O  O18  1  0.111987  0.388013  0.611987  1
  O  O19  1  0.135613  0.856542  0.640867  1
  O  O20  1  0.114387  0.609133  0.393458  1
  O  O21  1  0.138013  0.638013  0.861987  1
  O  O22  1  0.140867  0.364387  0.143458  1
  O  O23  1  0.143458  0.140867  0.364387  1
  O  O24  1  0.356542  0.859133  0.864387  1
  O  O25  1  0.359133  0.635613  0.643458  1
  O  O26  1  0.361987  0.361987  0.361987  1
  O  O27  1  0.385613  0.390867  0.893458  1
  O  O28  1  0.364387  0.143458  0.140867  1
  O  O29  1  0.388013  0.611987  0.111987  1
  O  O30  1  0.390867  0.893458  0.385613  1
  O  O31  1  0.393458  0.114387  0.609133  1
  O  O32  1  0.606542  0.614387  0.890867  1
  O  O33  1  0.609133  0.393458  0.114387  1
  O  O34  1  0.611987  0.111987  0.388013  1
  O  O35  1  0.635613  0.643458  0.359133  1
  O  O36  1  0.614387  0.890867  0.606542  1
  O  O37  1  0.638013  0.861987  0.138013  1
  O  O38  1  0.640867  0.135613  0.856542  1
  O  O39  1  0.643458  0.359133  0.635613  1
  O  O40  1  0.856542  0.640867  0.135613  1
  O  O41  1  0.859133  0.864387  0.356542  1
  O  O42  1  0.861987  0.138013  0.638013  1
  O  O43  1  0.885613  0.109133  0.106542  1
  O  O44  1  0.864387  0.356542  0.859133  1
  O  O45  1  0.888013  0.888013  0.888013  1
  O  O46  1  0.890867  0.606542  0.614387  1
  O  O47  1  0.893458  0.385613  0.390867  1
