# generated using pymatgen
data_Li8PrO6
_symmetry_space_group_name_H-M   'P 1'
_cell_length_a   6.51694517
_cell_length_b   6.51694517
_cell_length_c   6.51694517
_cell_angle_alpha   52.12642739
_cell_angle_beta   52.12642739
_cell_angle_gamma   52.12642739
_symmetry_Int_Tables_number   1
_chemical_formula_structural   Li8PrO6
_chemical_formula_sum   'Li8 Pr1 O6'
_cell_volume   159.49622673
_cell_formula_units_Z   1
loop_
 _symmetry_equiv_pos_site_id
 _symmetry_equiv_pos_as_xyz
  1  'x, y, z'
loop_
 _atom_site_type_symbol
 _atom_site_label
 _atom_site_symmetry_multiplicity
 _atom_site_fract_x
 _atom_site_fract_y
 _atom_site_fract_z
 _atom_site_occupancy
  Li  Li0  1  0.628741  0.628741  0.628741  1
  Li  Li1  1  0.095284  0.778260  0.499475  1
  Li  Li2  1  0.499475  0.095284  0.778260  1
  Li  Li3  1  0.778260  0.499475  0.095284  1
  Li  Li4  1  0.904716  0.221740  0.500525  1
  Li  Li5  1  0.500525  0.904716  0.221740  1
  Li  Li6  1  0.371259  0.371259  0.371259  1
  Li  Li7  1  0.221740  0.500525  0.904716  1
  Pr  Pr8  1  0.000000  0.000000  0.000000  1
  O  O9  1  0.113778  0.399417  0.756011  1
  O  O10  1  0.600583  0.243989  0.886222  1
  O  O11  1  0.886222  0.600583  0.243989  1
  O  O12  1  0.756011  0.113778  0.399417  1
  O  O13  1  0.399417  0.756011  0.113778  1
  O  O14  1  0.243989  0.886222  0.600583  1
