# generated using pymatgen
data_MnOF
_symmetry_space_group_name_H-M   'P 1'
_cell_length_a   5.12794786
_cell_length_b   5.74311974
_cell_length_c   10.54310680
_cell_angle_alpha   90.00000000
_cell_angle_beta   117.94021925
_cell_angle_gamma   90.00000000
_symmetry_Int_Tables_number   1
_chemical_formula_structural   MnOF
_chemical_formula_sum   'Mn8 O8 F8'
_cell_volume   274.30620728
_cell_formula_units_Z   8
loop_
 _symmetry_equiv_pos_site_id
 _symmetry_equiv_pos_as_xyz
  1  'x, y, z'
loop_
 _atom_site_type_symbol
 _atom_site_label
 _atom_site_symmetry_multiplicity
 _atom_site_fract_x
 _atom_site_fract_y
 _atom_site_fract_z
 _atom_site_occupancy
  Mn  Mn0  1  0.748345  0.150871  0.008892  1
  Mn  Mn1  1  0.251655  0.849129  0.991108  1
  Mn  Mn2  1  0.000000  0.405336  0.750000  1
  Mn  Mn3  1  0.500000  0.698657  0.750000  1
  Mn  Mn4  1  0.748345  0.849129  0.508892  1
  Mn  Mn5  1  0.251655  0.150871  0.491108  1
  Mn  Mn6  1  0.500000  0.301343  0.250000  1
  Mn  Mn7  1  0.000000  0.594664  0.250000  1
  O  O8  1  0.472575  0.910490  0.886693  1
  O  O9  1  0.927694  0.646849  0.856370  1
  O  O10  1  0.072306  0.646849  0.643630  1
  O  O11  1  0.527425  0.910490  0.613307  1
  O  O12  1  0.472575  0.089510  0.386693  1
  O  O13  1  0.927694  0.353151  0.356370  1
  O  O14  1  0.072306  0.353151  0.143630  1
  O  O15  1  0.527425  0.089510  0.113307  1
  F  F16  1  0.951951  0.157116  0.879291  1
  F  F17  1  0.466630  0.418586  0.871245  1
  F  F18  1  0.533370  0.418586  0.628755  1
  F  F19  1  0.048049  0.157116  0.620709  1
  F  F20  1  0.951951  0.842884  0.379291  1
  F  F21  1  0.466630  0.581414  0.371245  1
  F  F22  1  0.533370  0.581414  0.128755  1
  F  F23  1  0.048049  0.842884  0.120709  1
