# generated using pymatgen
data_FeP6(WO8)3
_symmetry_space_group_name_H-M   'P 1'
_cell_length_a   8.91247345
_cell_length_b   8.91247345
_cell_length_c   8.91247345
_cell_angle_alpha   58.96039547
_cell_angle_beta   58.96039547
_cell_angle_gamma   58.96039547
_symmetry_Int_Tables_number   1
_chemical_formula_structural   FeP6(WO8)3
_chemical_formula_sum   'Fe1 P6 W3 O24'
_cell_volume   488.71361079
_cell_formula_units_Z   1
loop_
 _symmetry_equiv_pos_site_id
 _symmetry_equiv_pos_as_xyz
  1  'x, y, z'
loop_
 _atom_site_type_symbol
 _atom_site_label
 _atom_site_symmetry_multiplicity
 _atom_site_fract_x
 _atom_site_fract_y
 _atom_site_fract_z
 _atom_site_occupancy
  Fe  Fe0  1  0.141720  0.141720  0.141720  1
  P  P1  1  0.248972  0.532025  0.965077  1
  P  P2  1  0.965077  0.248972  0.532025  1
  P  P3  1  0.532025  0.965077  0.248972  1
  P  P4  1  0.459074  0.036951  0.754532  1
  P  P5  1  0.036951  0.754532  0.459074  1
  P  P6  1  0.754532  0.459074  0.036951  1
  W  W7  1  0.857702  0.857702  0.857702  1
  W  W8  1  0.642774  0.642774  0.642774  1
  W  W9  1  0.357852  0.357852  0.357852  1
  O  O10  1  0.714425  0.496116  0.868187  1
  O  O11  1  0.496116  0.868187  0.714425  1
  O  O12  1  0.079572  0.714408  0.937294  1
  O  O13  1  0.868187  0.714425  0.496116  1
  O  O14  1  0.419321  0.567439  0.787338  1
  O  O15  1  0.223380  0.365408  0.990560  1
  O  O16  1  0.937294  0.079572  0.714408  1
  O  O17  1  0.787338  0.419321  0.567439  1
  O  O18  1  0.567439  0.787338  0.419321  1
  O  O19  1  0.634872  0.007683  0.778312  1
  O  O20  1  0.286000  0.059162  0.920850  1
  O  O21  1  0.007683  0.778312  0.634872  1
  O  O22  1  0.990560  0.223380  0.365408  1
  O  O23  1  0.714408  0.937294  0.079572  1
  O  O24  1  0.365408  0.990560  0.223380  1
  O  O25  1  0.440899  0.211631  0.576951  1
  O  O26  1  0.211631  0.576951  0.440899  1
  O  O27  1  0.059162  0.920850  0.286000  1
  O  O28  1  0.778312  0.634872  0.007683  1
  O  O29  1  0.576951  0.440899  0.211631  1
  O  O30  1  0.133315  0.280204  0.509996  1
  O  O31  1  0.920850  0.286000  0.059162  1
  O  O32  1  0.509996  0.133315  0.280204  1
  O  O33  1  0.280204  0.509996  0.133315  1
