# generated using pymatgen
data_Fe3Re
_symmetry_space_group_name_H-M   'P 1'
_cell_length_a   5.09447513
_cell_length_b   5.09447513
_cell_length_c   4.05967741
_cell_angle_alpha   90.00000000
_cell_angle_beta   90.00000000
_cell_angle_gamma   120.00000000
_symmetry_Int_Tables_number   1
_chemical_formula_structural   Fe3Re
_chemical_formula_sum   'Fe6 Re2'
_cell_volume   91.24751591
_cell_formula_units_Z   2
loop_
 _symmetry_equiv_pos_site_id
 _symmetry_equiv_pos_as_xyz
  1  'x, y, z'
loop_
 _atom_site_type_symbol
 _atom_site_label
 _atom_site_symmetry_multiplicity
 _atom_site_fract_x
 _atom_site_fract_y
 _atom_site_fract_z
 _atom_site_occupancy
  Fe  Fe0  1  0.162575  0.325151  0.250000  1
  Fe  Fe1  1  0.674849  0.837425  0.250000  1
  Fe  Fe2  1  0.162575  0.837425  0.250000  1
  Fe  Fe3  1  0.837425  0.674849  0.750000  1
  Fe  Fe4  1  0.325151  0.162575  0.750000  1
  Fe  Fe5  1  0.837425  0.162575  0.750000  1
  Re  Re6  1  0.333333  0.666667  0.750000  1
  Re  Re7  1  0.666667  0.333333  0.250000  1
