# generated using pymatgen
data_Li5Mn6(BO3)6
_symmetry_space_group_name_H-M   'P 1'
_cell_length_a   10.41850402
_cell_length_b   10.41850402
_cell_length_c   8.29394610
_cell_angle_alpha   66.80941616
_cell_angle_beta   113.19058384
_cell_angle_gamma   104.52305964
_symmetry_Int_Tables_number   1
_chemical_formula_structural   Li5Mn6(BO3)6
_chemical_formula_sum   'Li10 Mn12 B12 O36'
_cell_volume   755.76779185
_cell_formula_units_Z   2
loop_
 _symmetry_equiv_pos_site_id
 _symmetry_equiv_pos_as_xyz
  1  'x, y, z'
loop_
 _atom_site_type_symbol
 _atom_site_label
 _atom_site_symmetry_multiplicity
 _atom_site_fract_x
 _atom_site_fract_y
 _atom_site_fract_z
 _atom_site_occupancy
  Li  Li0  1  0.768144  0.736991  0.297803  1
  Li  Li1  1  0.725026  0.274974  0.982198  1
  Li  Li2  1  0.974904  0.523709  0.983928  1
  Li  Li3  1  0.263009  0.231856  0.297803  1
  Li  Li4  1  0.014507  0.985493  0.297496  1
  Li  Li5  1  0.133773  0.365665  0.719739  1
  Li  Li6  1  0.634335  0.866227  0.719739  1
  Li  Li7  1  0.383676  0.616324  0.712833  1
  Li  Li8  1  0.224330  0.775670  0.976268  1
  Li  Li9  1  0.476291  0.025096  0.983928  1
  Mn  Mn10  1  0.934362  0.817804  0.002992  1
  Mn  Mn11  1  0.432307  0.318997  0.018774  1
  Mn  Mn12  1  0.681003  0.567693  0.018774  1
  Mn  Mn13  1  0.993900  0.255330  0.373927  1
  Mn  Mn14  1  0.819491  0.425753  0.629255  1
  Mn  Mn15  1  0.182196  0.065638  0.002992  1
  Mn  Mn16  1  0.251344  0.501862  0.357440  1
  Mn  Mn17  1  0.498138  0.748656  0.357440  1
  Mn  Mn18  1  0.744670  0.006100  0.373927  1
  Mn  Mn19  1  0.574247  0.180509  0.629255  1
  Mn  Mn20  1  0.069431  0.679758  0.621508  1
  Mn  Mn21  1  0.320242  0.930569  0.621508  1
  B  B22  1  0.706831  0.293169  0.332468  1
  B  B23  1  0.957111  0.538803  0.334043  1
  B  B24  1  0.005213  0.253625  0.009859  1
  B  B25  1  0.746375  0.994787  0.009859  1
  B  B26  1  0.209029  0.790971  0.326007  1
  B  B27  1  0.461197  0.042889  0.334043  1
  B  B28  1  0.791479  0.705416  0.669036  1
  B  B29  1  0.545097  0.454903  0.678074  1
  B  B30  1  0.042848  0.957152  0.659750  1
  B  B31  1  0.241342  0.500371  0.990188  1
  B  B32  1  0.499629  0.758658  0.990188  1
  B  B33  1  0.294584  0.208521  0.669036  1
  O  O34  1  0.611704  0.388296  0.214322  1
  O  O35  1  0.864559  0.638984  0.220906  1
  O  O36  1  0.283479  0.432822  0.178753  1
  O  O37  1  0.567178  0.716521  0.178753  1
  O  O38  1  0.807964  0.948434  0.203984  1
  O  O39  1  0.743887  0.256113  0.523107  1
  O  O40  1  0.994747  0.496982  0.527274  1
  O  O41  1  0.266606  0.733394  0.247208  1
  O  O42  1  0.768315  0.231685  0.259798  1
  O  O43  1  0.844346  0.650004  0.583346  1
  O  O44  1  0.013606  0.478606  0.256893  1
  O  O45  1  0.521394  0.986394  0.256893  1
  O  O46  1  0.609135  0.390865  0.616769  1
  O  O47  1  0.946657  0.053343  0.541697  1
  O  O48  1  0.361016  0.135441  0.220906  1
  O  O49  1  0.111895  0.888105  0.213721  1
  O  O50  1  0.449006  0.550994  0.557122  1
  O  O51  1  0.193995  0.302732  0.559354  1
  O  O52  1  0.697268  0.806005  0.559354  1
  O  O53  1  0.904219  0.348336  0.922871  1
  O  O54  1  0.051566  0.192036  0.203984  1
  O  O55  1  0.248997  0.751003  0.518804  1
  O  O56  1  0.503018  0.005253  0.527274  1
  O  O57  1  0.830872  0.662579  0.860995  1
  O  O58  1  0.579644  0.420356  0.868740  1
  O  O59  1  0.287804  0.467164  0.875664  1
  O  O60  1  0.532836  0.712196  0.875664  1
  O  O61  1  0.777003  0.939196  0.905686  1
  O  O62  1  0.099269  0.900731  0.578932  1
  O  O63  1  0.349996  0.155654  0.583346  1
  O  O64  1  0.148042  0.602554  0.909361  1
  O  O65  1  0.397446  0.851958  0.909361  1
  O  O66  1  0.651664  0.095781  0.922871  1
  O  O67  1  0.082604  0.917396  0.851145  1
  O  O68  1  0.337420  0.169128  0.860995  1
  O  O69  1  0.060804  0.222997  0.905686  1
