# generated using pymatgen
data_RhI2
_symmetry_space_group_name_H-M   'P 1'
_cell_length_a   6.40587360
_cell_length_b   6.40587360
_cell_length_c   4.18918813
_cell_angle_alpha   90.00000000
_cell_angle_beta   90.00000000
_cell_angle_gamma   90.00000000
_symmetry_Int_Tables_number   1
_chemical_formula_structural   RhI2
_chemical_formula_sum   'Rh2 I4'
_cell_volume   171.90424221
_cell_formula_units_Z   2
loop_
 _symmetry_equiv_pos_site_id
 _symmetry_equiv_pos_as_xyz
  1  'x, y, z'
loop_
 _atom_site_type_symbol
 _atom_site_label
 _atom_site_symmetry_multiplicity
 _atom_site_fract_x
 _atom_site_fract_y
 _atom_site_fract_z
 _atom_site_occupancy
  Rh  Rh0  1  0.000000  0.000000  0.000000  1
  Rh  Rh1  1  0.500000  0.500000  0.500000  1
  I  I2  1  0.305036  0.305036  0.000000  1
  I  I3  1  0.694964  0.694964  0.000000  1
  I  I4  1  0.194964  0.805036  0.500000  1
  I  I5  1  0.805036  0.194964  0.500000  1
