# generated using pymatgen
data_Li10Mn(SiO5)2
_symmetry_space_group_name_H-M   'P 1'
_cell_length_a   15.37493018
_cell_length_b   15.37493018
_cell_length_c   5.17502048
_cell_angle_alpha   80.37302121
_cell_angle_beta   99.62697879
_cell_angle_gamma   157.04396524
_symmetry_Int_Tables_number   1
_chemical_formula_structural   Li10Mn(SiO5)2
_chemical_formula_sum   'Li20 Mn2 Si4 O20'
_cell_volume   470.12489211
_cell_formula_units_Z   2
loop_
 _symmetry_equiv_pos_site_id
 _symmetry_equiv_pos_as_xyz
  1  'x, y, z'
loop_
 _atom_site_type_symbol
 _atom_site_label
 _atom_site_symmetry_multiplicity
 _atom_site_fract_x
 _atom_site_fract_y
 _atom_site_fract_z
 _atom_site_occupancy
  Li  Li0  1  0.491226  0.508774  0.243835  1
  Li  Li1  1  0.224568  0.356264  0.599560  1
  Li  Li2  1  0.643736  0.775432  0.599560  1
  Li  Li3  1  0.867463  0.132537  0.718054  1
  Li  Li4  1  0.084035  0.347848  0.265616  1
  Li  Li5  1  0.652152  0.915965  0.265616  1
  Li  Li6  1  0.324516  0.675484  0.571456  1
  Li  Li7  1  0.047055  0.437738  0.900423  1
  Li  Li8  1  0.562262  0.952945  0.900423  1
  Li  Li9  1  0.269110  0.730890  0.176650  1
  Li  Li10  1  0.730890  0.269110  0.823350  1
  Li  Li11  1  0.437738  0.047055  0.099577  1
  Li  Li12  1  0.952945  0.562262  0.099577  1
  Li  Li13  1  0.675484  0.324516  0.428544  1
  Li  Li14  1  0.347848  0.084035  0.734384  1
  Li  Li15  1  0.915965  0.652152  0.734384  1
  Li  Li16  1  0.132537  0.867463  0.281946  1
  Li  Li17  1  0.775432  0.643736  0.400440  1
  Li  Li18  1  0.356264  0.224568  0.400440  1
  Li  Li19  1  0.508774  0.491226  0.756165  1
  Mn  Mn20  1  0.962250  0.037750  0.296152  1
  Mn  Mn21  1  0.037750  0.962250  0.703848  1
  Si  Si22  1  0.399585  0.600415  0.994131  1
  Si  Si23  1  0.780435  0.219565  0.371665  1
  Si  Si24  1  0.219565  0.780435  0.628335  1
  Si  Si25  1  0.600415  0.399585  0.005869  1
  O  O26  1  0.449504  0.550496  0.901353  1
  O  O27  1  0.907208  0.092792  0.453470  1
  O  O28  1  0.404352  0.595648  0.318687  1
  O  O29  1  0.153032  0.411995  0.879869  1
  O  O30  1  0.588005  0.846968  0.879869  1
  O  O31  1  0.030963  0.419413  0.284648  1
  O  O32  1  0.580587  0.969037  0.284648  1
  O  O33  1  0.785834  0.214166  0.692913  1
  O  O34  1  0.271565  0.728435  0.780886  1
  O  O35  1  0.728435  0.271565  0.219114  1
  O  O36  1  0.214166  0.785834  0.307087  1
  O  O37  1  0.969037  0.580587  0.715352  1
  O  O38  1  0.419413  0.030963  0.715352  1
  O  O39  1  0.411995  0.153032  0.120131  1
  O  O40  1  0.846968  0.588005  0.120131  1
  O  O41  1  0.595648  0.404352  0.681313  1
  O  O42  1  0.092792  0.907208  0.546530  1
  O  O43  1  0.550496  0.449504  0.098647  1
  O  O44  1  0.246439  0.246439  0.500000  1
  O  O45  1  0.753561  0.753561  0.500000  1
