# generated using pymatgen
data_Sb2S2O
_symmetry_space_group_name_H-M   'P 1'
_cell_length_a   5.95623492
_cell_length_b   5.95623492
_cell_length_c   10.36558853
_cell_angle_alpha   77.43196103
_cell_angle_beta   102.56803897
_cell_angle_gamma   140.12963292
_symmetry_Int_Tables_number   1
_chemical_formula_structural   Sb2S2O
_chemical_formula_sum   'Sb4 S4 O2'
_cell_volume   229.33685849
_cell_formula_units_Z   2
loop_
 _symmetry_equiv_pos_site_id
 _symmetry_equiv_pos_as_xyz
  1  'x, y, z'
loop_
 _atom_site_type_symbol
 _atom_site_label
 _atom_site_symmetry_multiplicity
 _atom_site_fract_x
 _atom_site_fract_y
 _atom_site_fract_z
 _atom_site_occupancy
  Sb  Sb0  1  0.294401  0.705599  0.135656  1
  Sb  Sb1  1  0.705599  0.294401  0.864344  1
  Sb  Sb2  1  0.615809  0.384191  0.383799  1
  Sb  Sb3  1  0.384191  0.615809  0.616201  1
  S  S4  1  0.840001  0.159999  0.415582  1
  S  S5  1  0.159999  0.840001  0.584418  1
  S  S6  1  0.090283  0.909717  0.201877  1
  S  S7  1  0.909717  0.090283  0.798123  1
  O  O8  1  0.748402  0.251598  0.068370  1
  O  O9  1  0.251598  0.748402  0.931630  1
