# generated using pymatgen
data_Ca10V6O25
_symmetry_space_group_name_H-M   'P 1'
_cell_length_a   10.02519860
_cell_length_b   10.02519860
_cell_length_c   6.80407194
_cell_angle_alpha   90.00000000
_cell_angle_beta   90.00000000
_cell_angle_gamma   120.00000000
_symmetry_Int_Tables_number   1
_chemical_formula_structural   Ca10V6O25
_chemical_formula_sum   'Ca10 V6 O25'
_cell_volume   592.22331097
_cell_formula_units_Z   1
loop_
 _symmetry_equiv_pos_site_id
 _symmetry_equiv_pos_as_xyz
  1  'x, y, z'
loop_
 _atom_site_type_symbol
 _atom_site_label
 _atom_site_symmetry_multiplicity
 _atom_site_fract_x
 _atom_site_fract_y
 _atom_site_fract_z
 _atom_site_occupancy
  Ca  Ca0  1  0.227095  0.981698  0.227854  1
  Ca  Ca1  1  0.772905  0.018302  0.772146  1
  Ca  Ca2  1  0.754603  0.772905  0.227854  1
  Ca  Ca3  1  0.245397  0.227095  0.772146  1
  Ca  Ca4  1  0.018302  0.245397  0.227854  1
  Ca  Ca5  1  0.981698  0.754603  0.772146  1
  Ca  Ca6  1  0.666667  0.333333  0.486556  1
  Ca  Ca7  1  0.333333  0.666667  0.513444  1
  Ca  Ca8  1  0.666667  0.333333  0.991835  1
  Ca  Ca9  1  0.333333  0.666667  0.008165  1
  V  V10  1  0.973487  0.375472  0.741157  1
  V  V11  1  0.026513  0.624528  0.258843  1
  V  V12  1  0.401985  0.026513  0.741157  1
  V  V13  1  0.598015  0.973487  0.258843  1
  V  V14  1  0.624528  0.598015  0.741157  1
  V  V15  1  0.375472  0.401985  0.258843  1
  O  O16  1  0.240382  0.314178  0.445271  1
  O  O17  1  0.759618  0.685822  0.554729  1
  O  O18  1  0.073796  0.759618  0.445271  1
  O  O19  1  0.926204  0.240382  0.554729  1
  O  O20  1  0.685822  0.926204  0.445271  1
  O  O21  1  0.314178  0.073796  0.554729  1
  O  O22  1  0.471972  0.605133  0.275414  1
  O  O23  1  0.528028  0.394867  0.724586  1
  O  O24  1  0.133161  0.528028  0.275414  1
  O  O25  1  0.866839  0.471972  0.724586  1
  O  O26  1  0.394867  0.866839  0.275414  1
  O  O27  1  0.605133  0.133161  0.724586  1
  O  O28  1  0.097970  0.740297  0.052627  1
  O  O29  1  0.902030  0.259703  0.947373  1
  O  O30  1  0.642327  0.902030  0.052627  1
  O  O31  1  0.357673  0.097970  0.947373  1
  O  O32  1  0.259703  0.357673  0.052627  1
  O  O33  1  0.740297  0.642327  0.947373  1
  O  O34  1  0.831795  0.500385  0.243713  1
  O  O35  1  0.168205  0.499615  0.756287  1
  O  O36  1  0.668591  0.168205  0.243713  1
  O  O37  1  0.331409  0.831795  0.756287  1
  O  O38  1  0.499615  0.331409  0.243713  1
  O  O39  1  0.500385  0.668591  0.756287  1
  O  O40  1  0.000000  0.000000  0.000000  1
