# generated using pymatgen
data_LiVOF3
_symmetry_space_group_name_H-M   'P 1'
_cell_length_a   7.86128542
_cell_length_b   7.94031410
_cell_length_c   10.70106041
_cell_angle_alpha   71.61513729
_cell_angle_beta   71.44478519
_cell_angle_gamma   81.73731290
_symmetry_Int_Tables_number   1
_chemical_formula_structural   LiVOF3
_chemical_formula_sum   'Li8 V8 O8 F24'
_cell_volume   600.22945893
_cell_formula_units_Z   8
loop_
 _symmetry_equiv_pos_site_id
 _symmetry_equiv_pos_as_xyz
  1  'x, y, z'
loop_
 _atom_site_type_symbol
 _atom_site_label
 _atom_site_symmetry_multiplicity
 _atom_site_fract_x
 _atom_site_fract_y
 _atom_site_fract_z
 _atom_site_occupancy
  Li  Li0  1  0.096587  0.553130  0.036230  1
  Li  Li1  1  0.093226  0.550735  0.534865  1
  Li  Li2  1  0.784766  0.846662  0.283866  1
  Li  Li3  1  0.300351  0.343568  0.285227  1
  Li  Li4  1  0.277927  0.352474  0.782474  1
  Li  Li5  1  0.598321  0.052497  0.533516  1
  Li  Li6  1  0.439433  0.091017  0.979338  1
  Li  Li7  1  0.793728  0.847806  0.786863  1
  V  V8  1  0.019835  0.995097  0.482634  1
  V  V9  1  0.244583  0.763730  0.235566  1
  V  V10  1  0.747717  0.269036  0.232405  1
  V  V11  1  0.248464  0.771183  0.732470  1
  V  V12  1  0.520779  0.496488  0.482953  1
  V  V13  1  0.011138  0.994742  0.986151  1
  V  V14  1  0.519934  0.494713  0.982523  1
  V  V15  1  0.748300  0.268390  0.733799  1
  O  O16  1  0.063772  0.863179  0.375886  1
  O  O17  1  0.116384  0.814089  0.123843  1
  O  O18  1  0.618469  0.323635  0.123002  1
  O  O19  1  0.118810  0.816268  0.623236  1
  O  O20  1  0.565894  0.366462  0.374236  1
  O  O21  1  0.070424  0.872061  0.871655  1
  O  O22  1  0.556508  0.359924  0.876829  1
  O  O23  1  0.622046  0.318776  0.621653  1
  F  F24  1  0.377519  0.968772  0.162222  1
  F  F25  1  0.285426  0.400312  0.097508  1
  F  F26  1  0.388436  0.693173  0.381966  1
  F  F27  1  0.442105  0.634703  0.132015  1
  F  F28  1  0.946121  0.138482  0.129053  1
  F  F29  1  0.725144  0.630442  0.411522  1
  F  F30  1  0.225382  0.128126  0.410314  1
  F  F31  1  0.884866  0.470610  0.163224  1
  F  F32  1  0.153414  0.531654  0.349777  1
  F  F33  1  0.653618  0.038111  0.347798  1
  F  F34  1  0.789570  0.898038  0.097299  1
  F  F35  1  0.444906  0.637677  0.632364  1
  F  F36  1  0.889969  0.192762  0.381638  1
  F  F37  1  0.229955  0.131555  0.915064  1
  F  F38  1  0.880087  0.474080  0.665074  1
  F  F39  1  0.383822  0.973951  0.661168  1
  F  F40  1  0.150918  0.540540  0.849373  1
  F  F41  1  0.284361  0.405181  0.597068  1
  F  F42  1  0.785317  0.904965  0.598865  1
  F  F43  1  0.389845  0.694596  0.882364  1
  F  F44  1  0.892949  0.194403  0.876548  1
  F  F45  1  0.946386  0.137736  0.631696  1
  F  F46  1  0.724164  0.628244  0.908630  1
  F  F47  1  0.643969  0.037888  0.841931  1
