# generated using pymatgen
data_La2Nb2N2O5
_symmetry_space_group_name_H-M   'P 1'
_cell_length_a   5.73433697
_cell_length_b   8.02207217
_cell_length_c   13.77037505
_cell_angle_alpha   98.40043343
_cell_angle_beta   90.47133248
_cell_angle_gamma   90.04116495
_symmetry_Int_Tables_number   1
_chemical_formula_structural   La2Nb2N2O5
_chemical_formula_sum   'La8 Nb8 N8 O20'
_cell_volume   626.63609624
_cell_formula_units_Z   4
loop_
 _symmetry_equiv_pos_site_id
 _symmetry_equiv_pos_as_xyz
  1  'x, y, z'
loop_
 _atom_site_type_symbol
 _atom_site_label
 _atom_site_symmetry_multiplicity
 _atom_site_fract_x
 _atom_site_fract_y
 _atom_site_fract_z
 _atom_site_occupancy
  La  La0  1  0.344680  0.133024  0.568773  1
  La  La1  1  0.763091  0.215642  0.911782  1
  La  La2  1  0.250953  0.273802  0.122991  1
  La  La3  1  0.772769  0.340854  0.383301  1
  La  La4  1  0.283182  0.665234  0.607968  1
  La  La5  1  0.750372  0.732223  0.883081  1
  La  La6  1  0.264211  0.780431  0.095006  1
  La  La7  1  0.833663  0.862210  0.430198  1
  Nb  Nb8  1  0.294394  0.070408  0.321863  1
  Nb  Nb9  1  0.742076  0.023051  0.117298  1
  Nb  Nb10  1  0.791699  0.413968  0.675525  1
  Nb  Nb11  1  0.263615  0.472547  0.882491  1
  Nb  Nb12  1  0.767460  0.536098  0.118380  1
  Nb  Nb13  1  0.281995  0.597686  0.324575  1
  Nb  Nb14  1  0.258874  0.969221  0.883115  1
  Nb  Nb15  1  0.794744  0.925055  0.675680  1
  N  N16  1  0.549940  0.087344  0.409861  1
  N  N17  1  0.450393  0.026039  0.184888  1
  N  N18  1  0.534054  0.961990  0.981598  1
  N  N19  1  0.561170  0.870439  0.573409  1
  N  N20  1  0.817247  0.770894  0.105893  1
  N  N21  1  0.194051  0.821969  0.303437  1
  N  N22  1  0.943953  0.974696  0.821194  1
  N  N23  1  0.050471  0.916919  0.590445  1
  O  O24  1  0.686595  0.182015  0.697172  1
  O  O25  1  0.319919  0.227715  0.887299  1
  O  O26  1  0.058923  0.134615  0.427964  1
  O  O27  1  0.043943  0.048426  0.018964  1
  O  O28  1  0.955784  0.125244  0.222619  1
  O  O29  1  0.074042  0.373754  0.613813  1
  O  O30  1  0.944559  0.431211  0.820423  1
  O  O31  1  0.672067  0.275437  0.084895  1
  O  O32  1  0.348644  0.328250  0.302118  1
  O  O33  1  0.586060  0.412663  0.563489  1
  O  O34  1  0.522574  0.533565  0.978977  1
  O  O35  1  0.453353  0.500525  0.774764  1
  O  O36  1  0.960812  0.498821  0.227251  1
  O  O37  1  0.029641  0.459622  0.019070  1
  O  O38  1  0.082745  0.585594  0.437895  1
  O  O39  1  0.844614  0.665571  0.696810  1
  O  O40  1  0.170656  0.721803  0.912717  1
  O  O41  1  0.445016  0.562438  0.178096  1
  O  O42  1  0.577705  0.619015  0.386520  1
  O  O43  1  0.448271  0.871977  0.776388  1
