# generated using pymatgen
data_NiH12S2(NO5)2
_symmetry_space_group_name_H-M   'P 1'
_cell_length_a   6.42354842
_cell_length_b   6.78287448
_cell_length_c   6.83582397
_cell_angle_alpha   89.21540431
_cell_angle_beta   111.90764667
_cell_angle_gamma   112.15626905
_symmetry_Int_Tables_number   1
_chemical_formula_structural   NiH12S2(NO5)2
_chemical_formula_sum   'Ni1 H12 S2 N2 O10'
_cell_volume   253.11364587
_cell_formula_units_Z   1
loop_
 _symmetry_equiv_pos_site_id
 _symmetry_equiv_pos_as_xyz
  1  'x, y, z'
loop_
 _atom_site_type_symbol
 _atom_site_label
 _atom_site_symmetry_multiplicity
 _atom_site_fract_x
 _atom_site_fract_y
 _atom_site_fract_z
 _atom_site_occupancy
  Ni  Ni0  1  0.000000  0.000000  0.000000  1
  H  H1  1  0.208042  0.951754  0.719927  1
  H  H2  1  0.248235  0.819059  0.301175  1
  H  H3  1  0.176661  0.172788  0.711312  1
  H  H4  1  0.273343  0.779838  0.081272  1
  H  H5  1  0.260631  0.319978  0.317721  1
  H  H6  1  0.268100  0.410151  0.088941  1
  H  H7  1  0.731900  0.589849  0.911059  1
  H  H8  1  0.739369  0.680022  0.682279  1
  H  H9  1  0.726657  0.220162  0.918728  1
  H  H10  1  0.823339  0.827212  0.288688  1
  H  H11  1  0.751765  0.180941  0.698825  1
  H  H12  1  0.791958  0.048246  0.280073  1
  S  S13  1  0.393942  0.638347  0.719173  1
  S  S14  1  0.606058  0.361653  0.280827  1
  N  N15  1  0.701751  0.702213  0.813039  1
  N  N16  1  0.298249  0.297787  0.186961  1
  O  O17  1  0.346795  0.648382  0.911950  1
  O  O18  1  0.167767  0.802286  0.144431  1
  O  O19  1  0.354733  0.804431  0.589378  1
  O  O20  1  0.121231  0.028885  0.754815  1
  O  O21  1  0.272370  0.419895  0.598626  1
  O  O22  1  0.727630  0.580105  0.401374  1
  O  O23  1  0.878769  0.971115  0.245185  1
  O  O24  1  0.645267  0.195569  0.410622  1
  O  O25  1  0.832233  0.197714  0.855569  1
  O  O26  1  0.653205  0.351618  0.088050  1
