# generated using pymatgen
data_ThNb4O12
_symmetry_space_group_name_H-M   'P 1'
_cell_length_a   11.97587964
_cell_length_b   11.97587964
_cell_length_c   11.97587964
_cell_angle_alpha   152.94344512
_cell_angle_beta   96.08688093
_cell_angle_gamma   90.19512893
_symmetry_Int_Tables_number   1
_chemical_formula_structural   ThNb4O12
_chemical_formula_sum   'Th3 Nb12 O36'
_cell_volume   758.48756953
_cell_formula_units_Z   3
loop_
 _symmetry_equiv_pos_site_id
 _symmetry_equiv_pos_as_xyz
  1  'x, y, z'
loop_
 _atom_site_type_symbol
 _atom_site_label
 _atom_site_symmetry_multiplicity
 _atom_site_fract_x
 _atom_site_fract_y
 _atom_site_fract_z
 _atom_site_occupancy
  Th  Th0  1  0.000000  0.000000  0.000000  1
  Th  Th1  1  0.827802  0.327802  0.500000  1
  Th  Th2  1  0.172198  0.672198  0.500000  1
  Nb  Nb3  1  0.960384  0.826629  0.133755  1
  Nb  Nb4  1  0.692874  0.826629  0.866245  1
  Nb  Nb5  1  0.533636  0.157263  0.376374  1
  Nb  Nb6  1  0.780889  0.157263  0.623626  1
  Nb  Nb7  1  0.619730  0.500000  0.119730  1
  Nb  Nb8  1  0.135758  0.500000  0.635758  1
  Nb  Nb9  1  0.380270  0.500000  0.880270  1
  Nb  Nb10  1  0.864242  0.500000  0.364242  1
  Nb  Nb11  1  0.219111  0.842737  0.376374  1
  Nb  Nb12  1  0.466364  0.842737  0.623626  1
  Nb  Nb13  1  0.307126  0.173371  0.133755  1
  Nb  Nb14  1  0.039616  0.173371  0.866245  1
  O  O15  1  0.000000  0.500000  0.500000  1
  O  O16  1  0.845873  0.845873  0.000000  1
  O  O17  1  0.647766  0.492647  0.619351  1
  O  O18  1  0.873296  0.028415  0.380649  1
  O  O19  1  0.647766  0.028415  0.155119  1
  O  O20  1  0.873296  0.492647  0.844881  1
  O  O21  1  0.682070  0.182070  0.500000  1
  O  O22  1  0.422653  0.170315  0.252338  1
  O  O23  1  0.917976  0.170315  0.747662  1
  O  O24  1  0.187683  0.327885  0.355100  1
  O  O25  1  0.972785  0.327885  0.140202  1
  O  O26  1  0.706595  0.336873  0.874139  1
  O  O27  1  0.462734  0.336873  0.630278  1
  O  O28  1  0.187683  0.832583  0.859798  1
  O  O29  1  0.972785  0.832583  0.644900  1
  O  O30  1  0.462734  0.832456  0.125861  1
  O  O31  1  0.706595  0.832456  0.369722  1
  O  O32  1  0.500000  0.500000  0.000000  1
  O  O33  1  0.251700  0.500000  0.751700  1
  O  O34  1  0.748300  0.500000  0.248300  1
  O  O35  1  0.293405  0.167544  0.630278  1
  O  O36  1  0.027215  0.167417  0.355100  1
  O  O37  1  0.537266  0.663127  0.369722  1
  O  O38  1  0.293405  0.663127  0.125861  1
  O  O39  1  0.537266  0.167544  0.874139  1
  O  O40  1  0.027215  0.672115  0.859798  1
  O  O41  1  0.812317  0.167417  0.140202  1
  O  O42  1  0.812317  0.672115  0.644900  1
  O  O43  1  0.577347  0.829685  0.747662  1
  O  O44  1  0.082024  0.829685  0.252338  1
  O  O45  1  0.317930  0.817930  0.500000  1
  O  O46  1  0.126704  0.507353  0.155119  1
  O  O47  1  0.352234  0.507353  0.380649  1
  O  O48  1  0.352234  0.971585  0.844881  1
  O  O49  1  0.126704  0.971585  0.619351  1
  O  O50  1  0.154127  0.154127  0.000000  1
