# generated using pymatgen
data_Li4Mn2Co3Sn3O16
_symmetry_space_group_name_H-M   'P 1'
_cell_length_a   5.96260465
_cell_length_b   6.01038889
_cell_length_c   9.58539667
_cell_angle_alpha   89.59394036
_cell_angle_beta   91.27008404
_cell_angle_gamma   119.48115812
_symmetry_Int_Tables_number   1
_chemical_formula_structural   Li4Mn2Co3Sn3O16
_chemical_formula_sum   'Li4 Mn2 Co3 Sn3 O16'
_cell_volume   298.96154415
_cell_formula_units_Z   1
loop_
 _symmetry_equiv_pos_site_id
 _symmetry_equiv_pos_as_xyz
  1  'x, y, z'
loop_
 _atom_site_type_symbol
 _atom_site_label
 _atom_site_symmetry_multiplicity
 _atom_site_fract_x
 _atom_site_fract_y
 _atom_site_fract_z
 _atom_site_occupancy
  Li  Li0  1  0.324746  0.678166  0.889008  1
  Li  Li1  1  0.019341  0.973200  0.990273  1
  Li  Li2  1  0.011689  0.979435  0.501621  1
  Li  Li3  1  0.665020  0.338906  0.402778  1
  Mn  Mn4  1  0.331518  0.671263  0.495499  1
  Mn  Mn5  1  0.660078  0.340803  0.978636  1
  Co  Co6  1  0.175377  0.832725  0.213257  1
  Co  Co7  1  0.332790  0.165412  0.715662  1
  Co  Co8  1  0.823306  0.658014  0.715657  1
  Sn  Sn9  1  0.174173  0.341936  0.212805  1
  Sn  Sn10  1  0.662514  0.834225  0.212903  1
  Sn  Sn11  1  0.830902  0.168536  0.710981  1
  O  O12  1  0.163911  0.309267  0.599121  1
  O  O13  1  0.488694  0.523284  0.346652  1
  O  O14  1  0.320610  0.675925  0.098456  1
  O  O15  1  0.018142  0.993455  0.312912  1
  O  O16  1  0.005934  0.986950  0.808432  1
  O  O17  1  0.666804  0.824176  0.597561  1
  O  O18  1  0.047069  0.540464  0.342356  1
  O  O19  1  0.479039  0.978100  0.331997  1
  O  O20  1  0.838123  0.166448  0.085489  1
  O  O21  1  0.161486  0.830348  0.614558  1
  O  O22  1  0.511604  0.049938  0.846237  1
  O  O23  1  0.949611  0.491697  0.846405  1
  O  O24  1  0.649462  0.341701  0.611144  1
  O  O25  1  0.333950  0.160388  0.094795  1
  O  O26  1  0.516443  0.479108  0.835989  1
  O  O27  1  0.837366  0.665832  0.096656  1
