# generated using pymatgen
data_Fe4O3F5
_symmetry_space_group_name_H-M   'P 1'
_cell_length_a   4.82675334
_cell_length_b   5.74669016
_cell_length_c   10.49134692
_cell_angle_alpha   95.37103491
_cell_angle_beta   90.68016461
_cell_angle_gamma   92.84579143
_symmetry_Int_Tables_number   1
_chemical_formula_structural   Fe4O3F5
_chemical_formula_sum   'Fe8 O6 F10'
_cell_volume   289.33254690
_cell_formula_units_Z   2
loop_
 _symmetry_equiv_pos_site_id
 _symmetry_equiv_pos_as_xyz
  1  'x, y, z'
loop_
 _atom_site_type_symbol
 _atom_site_label
 _atom_site_symmetry_multiplicity
 _atom_site_fract_x
 _atom_site_fract_y
 _atom_site_fract_z
 _atom_site_occupancy
  Fe  Fe0  1  0.500000  0.500000  0.500000  1
  Fe  Fe1  1  0.500000  0.000000  0.000000  1
  Fe  Fe2  1  0.423084  0.255473  0.747626  1
  Fe  Fe3  1  0.576916  0.744527  0.252374  1
  Fe  Fe4  1  0.000000  0.500000  0.000000  1
  Fe  Fe5  1  0.969743  0.255339  0.239407  1
  Fe  Fe6  1  0.000000  0.000000  0.500000  1
  Fe  Fe7  1  0.030257  0.744661  0.760593  1
  O  O8  1  0.808040  0.513550  0.173197  1
  O  O9  1  0.697776  0.018729  0.165868  1
  O  O10  1  0.704227  0.782691  0.426253  1
  O  O11  1  0.302224  0.981271  0.834132  1
  O  O12  1  0.295773  0.217309  0.573747  1
  O  O13  1  0.191960  0.486450  0.826803  1
  F  F14  1  0.817146  0.271068  0.419316  1
  F  F15  1  0.816629  0.005005  0.676199  1
  F  F16  1  0.791377  0.785819  0.921242  1
  F  F17  1  0.689554  0.267699  0.918052  1
  F  F18  1  0.702382  0.516762  0.687114  1
  F  F19  1  0.297618  0.483238  0.312886  1
  F  F20  1  0.310446  0.732301  0.081948  1
  F  F21  1  0.182854  0.728932  0.580684  1
  F  F22  1  0.208623  0.214181  0.078758  1
  F  F23  1  0.183371  0.994995  0.323801  1
