# generated using pymatgen
data_LiMnP2(HO4)2
_symmetry_space_group_name_H-M   'P 1'
_cell_length_a   9.47673605
_cell_length_b   9.47673605
_cell_length_c   8.84384387
_cell_angle_alpha   72.41213420
_cell_angle_beta   107.58786580
_cell_angle_gamma   65.67361876
_symmetry_Int_Tables_number   1
_chemical_formula_structural   LiMnP2(HO4)2
_chemical_formula_sum   'Li4 Mn4 P8 H8 O32'
_cell_volume   600.94838056
_cell_formula_units_Z   4
loop_
 _symmetry_equiv_pos_site_id
 _symmetry_equiv_pos_as_xyz
  1  'x, y, z'
loop_
 _atom_site_type_symbol
 _atom_site_label
 _atom_site_symmetry_multiplicity
 _atom_site_fract_x
 _atom_site_fract_y
 _atom_site_fract_z
 _atom_site_occupancy
  Li  Li0  1  0.874852  0.783456  0.652141  1
  Li  Li1  1  0.403031  0.210039  0.690645  1
  Li  Li2  1  0.216544  0.125148  0.152141  1
  Li  Li3  1  0.789961  0.596969  0.190645  1
  Mn  Mn4  1  0.363410  0.414750  0.963155  1
  Mn  Mn5  1  0.585250  0.636590  0.463155  1
  Mn  Mn6  1  0.135983  0.142663  0.491017  1
  Mn  Mn7  1  0.857337  0.864017  0.991017  1
  P  P8  1  0.161907  0.850480  0.839490  1
  P  P9  1  0.042566  0.418606  0.687404  1
  P  P10  1  0.149520  0.838093  0.339490  1
  P  P11  1  0.566719  0.815444  0.746606  1
  P  P12  1  0.581394  0.957434  0.187404  1
  P  P13  1  0.184556  0.433281  0.246606  1
  P  P14  1  0.647224  0.306705  0.813516  1
  P  P15  1  0.693295  0.352776  0.313516  1
  H  H16  1  0.488500  0.668630  0.907904  1
  H  H17  1  0.216324  0.648802  0.601134  1
  H  H18  1  0.331370  0.511500  0.407904  1
  H  H19  1  0.351198  0.783676  0.101134  1
  H  H20  1  0.913699  0.319884  0.810755  1
  H  H21  1  0.861887  0.124523  0.582257  1
  H  H22  1  0.680116  0.086301  0.310755  1
  H  H23  1  0.875477  0.138113  0.082257  1
  O  O24  1  0.004686  0.841831  0.839244  1
  O  O25  1  0.244277  0.892163  0.991325  1
  O  O26  1  0.080113  0.017045  0.653608  1
  O  O27  1  0.398776  0.000090  0.671049  1
  O  O28  1  0.312166  0.680705  0.866225  1
  O  O29  1  0.158169  0.995314  0.339244  1
  O  O30  1  0.107837  0.755723  0.491325  1
  O  O31  1  0.035654  0.294383  0.853932  1
  O  O32  1  0.982955  0.919887  0.153608  1
  O  O33  1  0.131233  0.505856  0.766195  1
  O  O34  1  0.597999  0.675558  0.927846  1
  O  O35  1  0.733859  0.822965  0.802469  1
  O  O36  1  0.552390  0.751607  0.608690  1
  O  O37  1  0.999910  0.601224  0.171049  1
  O  O38  1  0.149748  0.305709  0.623270  1
  O  O39  1  0.319295  0.687834  0.366225  1
  O  O40  1  0.458720  0.419419  0.785282  1
  O  O41  1  0.705617  0.964346  0.353932  1
  O  O42  1  0.494144  0.868767  0.266195  1
  O  O43  1  0.324442  0.402001  0.427846  1
  O  O44  1  0.797543  0.267768  0.990954  1
  O  O45  1  0.177035  0.266141  0.302469  1
  O  O46  1  0.672978  0.407026  0.661434  1
  O  O47  1  0.248393  0.447610  0.108690  1
  O  O48  1  0.694291  0.850252  0.123270  1
  O  O49  1  0.850788  0.569054  0.540318  1
  O  O50  1  0.580581  0.541280  0.285282  1
  O  O51  1  0.674354  0.130034  0.825028  1
  O  O52  1  0.732232  0.202457  0.490954  1
  O  O53  1  0.592974  0.327022  0.161434  1
  O  O54  1  0.430946  0.149212  0.040318  1
  O  O55  1  0.869966  0.325646  0.325028  1
