# generated using pymatgen
data_LiCo2OF5
_symmetry_space_group_name_H-M   'P 1'
_cell_length_a   4.99134114
_cell_length_b   4.56096423
_cell_length_c   16.90329911
_cell_angle_alpha   90.00000000
_cell_angle_beta   90.27365643
_cell_angle_gamma   90.00000000
_symmetry_Int_Tables_number   1
_chemical_formula_structural   LiCo2OF5
_chemical_formula_sum   'Li4 Co8 O4 F20'
_cell_volume   384.80476575
_cell_formula_units_Z   4
loop_
 _symmetry_equiv_pos_site_id
 _symmetry_equiv_pos_as_xyz
  1  'x, y, z'
loop_
 _atom_site_type_symbol
 _atom_site_label
 _atom_site_symmetry_multiplicity
 _atom_site_fract_x
 _atom_site_fract_y
 _atom_site_fract_z
 _atom_site_occupancy
  Li  Li0  1  0.744046  0.233484  0.384560  1
  Li  Li1  1  0.254013  0.246442  0.615904  1
  Li  Li2  1  0.744046  0.766516  0.884560  1
  Li  Li3  1  0.254013  0.753558  0.115904  1
  Co  Co4  1  0.221780  0.272181  0.282492  1
  Co  Co5  1  0.767782  0.277080  0.059982  1
  Co  Co6  1  0.757874  0.262618  0.712132  1
  Co  Co7  1  0.257301  0.251014  0.950618  1
  Co  Co8  1  0.757874  0.737382  0.212132  1
  Co  Co9  1  0.767782  0.722920  0.559982  1
  Co  Co10  1  0.221780  0.727819  0.782491  1
  Co  Co11  1  0.257301  0.748986  0.450618  1
  O  O12  1  0.926775  0.505504  0.783383  1
  O  O13  1  0.894946  0.479078  0.630381  1
  O  O14  1  0.894946  0.520922  0.130381  1
  O  O15  1  0.926775  0.494496  0.283383  1
  F  F16  1  0.927506  0.476440  0.960026  1
  F  F17  1  0.413859  0.478347  0.038282  1
  F  F18  1  0.435687  0.516438  0.207280  1
  F  F19  1  0.407606  0.488868  0.376657  1
  F  F20  1  0.407606  0.511132  0.876657  1
  F  F21  1  0.435687  0.483562  0.707280  1
  F  F22  1  0.927506  0.523560  0.460026  1
  F  F23  1  0.413859  0.521653  0.538282  1
  F  F24  1  0.576599  0.971965  0.466731  1
  F  F25  1  0.085230  0.977993  0.534697  1
  F  F26  1  0.576182  0.007769  0.288088  1
  F  F27  1  0.068353  0.025283  0.704691  1
  F  F28  1  0.591328  0.980197  0.131025  1
  F  F29  1  0.093130  0.991994  0.873070  1
  F  F30  1  0.093130  0.008006  0.373070  1
  F  F31  1  0.591328  0.019803  0.631025  1
  F  F32  1  0.576182  0.992231  0.788088  1
  F  F33  1  0.068353  0.974717  0.204691  1
  F  F34  1  0.085230  0.022007  0.034697  1
  F  F35  1  0.576599  0.028035  0.966731  1
