# generated using pymatgen
data_V3OF11
_symmetry_space_group_name_H-M   'P 1'
_cell_length_a   5.26808195
_cell_length_b   5.45092601
_cell_length_c   14.73279649
_cell_angle_alpha   79.64467043
_cell_angle_beta   89.98220474
_cell_angle_gamma   89.91227615
_symmetry_Int_Tables_number   1
_chemical_formula_structural   V3OF11
_chemical_formula_sum   'V6 O2 F22'
_cell_volume   416.17445560
_cell_formula_units_Z   2
loop_
 _symmetry_equiv_pos_site_id
 _symmetry_equiv_pos_as_xyz
  1  'x, y, z'
loop_
 _atom_site_type_symbol
 _atom_site_label
 _atom_site_symmetry_multiplicity
 _atom_site_fract_x
 _atom_site_fract_y
 _atom_site_fract_z
 _atom_site_occupancy
  V  V0  1  0.008577  0.000257  0.993729  1
  V  V1  1  0.499825  0.166534  0.666358  1
  V  V2  1  0.992107  0.322243  0.332244  1
  V  V3  1  0.503639  0.498113  0.001241  1
  V  V4  1  0.999781  0.666585  0.666337  1
  V  V5  1  0.476347  0.793275  0.336145  1
  O  O6  1  0.082095  0.044835  0.885331  1
  O  O7  1  0.295709  0.541597  0.355673  1
  F  F8  1  0.210400  0.024183  0.357927  1
  F  F9  1  0.292435  0.193872  0.026281  1
  F  F10  1  0.706849  0.139870  0.309707  1
  F  F11  1  0.413354  0.208568  0.548895  1
  F  F12  1  0.088240  0.383297  0.215282  1
  F  F13  1  0.585933  0.125065  0.784122  1
  F  F14  1  0.923574  0.295682  0.451137  1
  F  F15  1  0.582347  0.458260  0.118980  1
  F  F16  1  0.198445  0.356575  0.691215  1
  F  F17  1  0.202636  0.697055  0.025876  1
  F  F18  1  0.798223  0.303389  0.975647  1
  F  F19  1  0.698243  0.476937  0.641560  1
  F  F20  1  0.787434  0.637728  0.309264  1
  F  F21  1  0.412514  0.542283  0.884303  1
  F  F22  1  0.087312  0.709007  0.548932  1
  F  F23  1  0.426908  0.894271  0.216545  1
  F  F24  1  0.913452  0.623687  0.784111  1
  F  F25  1  0.591994  0.802063  0.448443  1
  F  F26  1  0.911786  0.957035  0.115842  1
  F  F27  1  0.301503  0.856208  0.691483  1
  F  F28  1  0.706803  0.804794  0.975502  1
  F  F29  1  0.801534  0.976733  0.641889  1
