# generated using pymatgen
data_PrBS3
_symmetry_space_group_name_H-M   'P 1'
_cell_length_a   6.03267374
_cell_length_b   7.67603232
_cell_length_c   8.99600094
_cell_angle_alpha   90.00000000
_cell_angle_beta   90.00000000
_cell_angle_gamma   90.00000000
_symmetry_Int_Tables_number   1
_chemical_formula_structural   PrBS3
_chemical_formula_sum   'Pr4 B4 S12'
_cell_volume   416.57780297
_cell_formula_units_Z   4
loop_
 _symmetry_equiv_pos_site_id
 _symmetry_equiv_pos_as_xyz
  1  'x, y, z'
loop_
 _atom_site_type_symbol
 _atom_site_label
 _atom_site_symmetry_multiplicity
 _atom_site_fract_x
 _atom_site_fract_y
 _atom_site_fract_z
 _atom_site_occupancy
  Pr  Pr0  1  0.929204  0.114044  0.433205  1
  Pr  Pr1  1  0.070796  0.885956  0.933205  1
  Pr  Pr2  1  0.429204  0.385956  0.933205  1
  Pr  Pr3  1  0.570796  0.614044  0.433205  1
  B  B4  1  0.403779  0.146227  0.604387  1
  B  B5  1  0.596221  0.853773  0.104387  1
  B  B6  1  0.903779  0.353773  0.104387  1
  B  B7  1  0.096221  0.646227  0.604387  1
  S  S8  1  0.165365  0.173114  0.726593  1
  S  S9  1  0.834635  0.826886  0.226593  1
  S  S10  1  0.665365  0.326886  0.226593  1
  S  S11  1  0.334635  0.673114  0.726593  1
  S  S12  1  0.865937  0.795730  0.635559  1
  S  S13  1  0.134063  0.204270  0.135559  1
  S  S14  1  0.365937  0.704270  0.135559  1
  S  S15  1  0.634063  0.295730  0.635559  1
  S  S16  1  0.404312  0.002031  0.446076  1
  S  S17  1  0.595688  0.997969  0.946076  1
  S  S18  1  0.904312  0.497969  0.946076  1
  S  S19  1  0.095688  0.502031  0.446076  1
