# generated using pymatgen
data_PaZn3
_symmetry_space_group_name_H-M   'P 1'
_cell_length_a   6.29377086
_cell_length_b   6.29377086
_cell_length_c   4.40826171
_cell_angle_alpha   90.00000000
_cell_angle_beta   90.00000000
_cell_angle_gamma   120.00000000
_symmetry_Int_Tables_number   1
_chemical_formula_structural   PaZn3
_chemical_formula_sum   'Pa2 Zn6'
_cell_volume   151.22369876
_cell_formula_units_Z   2
loop_
 _symmetry_equiv_pos_site_id
 _symmetry_equiv_pos_as_xyz
  1  'x, y, z'
loop_
 _atom_site_type_symbol
 _atom_site_label
 _atom_site_symmetry_multiplicity
 _atom_site_fract_x
 _atom_site_fract_y
 _atom_site_fract_z
 _atom_site_occupancy
  Pa  Pa0  1  0.333333  0.666667  0.750000  1
  Pa  Pa1  1  0.666667  0.333333  0.250000  1
  Zn  Zn2  1  0.150221  0.849779  0.250000  1
  Zn  Zn3  1  0.849779  0.699559  0.750000  1
  Zn  Zn4  1  0.300441  0.150221  0.750000  1
  Zn  Zn5  1  0.849779  0.150221  0.750000  1
  Zn  Zn6  1  0.150221  0.300441  0.250000  1
  Zn  Zn7  1  0.699559  0.849779  0.250000  1
