# generated using pymatgen
data_Li3MnFe2(BO3)3
_symmetry_space_group_name_H-M   'P 1'
_cell_length_a   8.25501867
_cell_length_b   3.15151286
_cell_length_c   14.31610295
_cell_angle_alpha   90.00000000
_cell_angle_beta   90.08907622
_cell_angle_gamma   90.00000000
_symmetry_Int_Tables_number   1
_chemical_formula_structural   Li3MnFe2(BO3)3
_chemical_formula_sum   'Li6 Mn2 Fe4 B6 O18'
_cell_volume   372.44438522
_cell_formula_units_Z   2
loop_
 _symmetry_equiv_pos_site_id
 _symmetry_equiv_pos_as_xyz
  1  'x, y, z'
loop_
 _atom_site_type_symbol
 _atom_site_label
 _atom_site_symmetry_multiplicity
 _atom_site_fract_x
 _atom_site_fract_y
 _atom_site_fract_z
 _atom_site_occupancy
  Li  Li0  1  0.706404  0.500000  0.009445  1
  Li  Li1  1  0.659715  0.500000  0.641628  1
  Li  Li2  1  0.634095  0.500000  0.349462  1
  Li  Li3  1  0.207022  0.500000  0.507942  1
  Li  Li4  1  0.158135  0.500000  0.143594  1
  Li  Li5  1  0.133193  0.500000  0.848770  1
  Mn  Mn6  1  0.808425  0.000000  0.819991  1
  Mn  Mn7  1  0.365360  0.000000  0.994609  1
  Fe  Fe8  1  0.864307  0.000000  0.495461  1
  Fe  Fe9  1  0.824967  0.000000  0.183283  1
  Fe  Fe10  1  0.324436  0.000000  0.682958  1
  Fe  Fe11  1  0.311399  0.000000  0.320156  1
  B  B12  1  0.999869  0.500000  0.333692  1
  B  B13  1  0.000195  0.000000  0.001092  1
  B  B14  1  0.001119  0.500000  0.665488  1
  B  B15  1  0.498113  0.500000  0.832271  1
  B  B16  1  0.500229  0.000000  0.499741  1
  B  B17  1  0.500992  0.500000  0.168030  1
  O  O18  1  0.989195  0.500000  0.568619  1
  O  O19  1  0.981368  0.500000  0.236749  1
  O  O20  1  0.863670  0.500000  0.391309  1
  O  O21  1  0.861489  0.500000  0.719596  1
  O  O22  1  0.846463  0.000000  0.041358  1
  O  O23  1  0.651124  0.500000  0.874124  1
  O  O24  1  0.652774  0.500000  0.210539  1
  O  O25  1  0.640029  0.000000  0.554390  1
  O  O26  1  0.512067  0.000000  0.402775  1
  O  O27  1  0.489561  0.500000  0.071172  1
  O  O28  1  0.482991  0.500000  0.735432  1
  O  O29  1  0.360756  0.500000  0.888418  1
  O  O30  1  0.360902  0.500000  0.222078  1
  O  O31  1  0.348510  0.000000  0.542127  1
  O  O32  1  0.154795  0.500000  0.372903  1
  O  O33  1  0.152751  0.500000  0.708517  1
  O  O34  1  0.136745  0.000000  0.058145  1
  O  O35  1  0.016832  0.000000  0.904137  1
