# generated using pymatgen
data_Li2MnVP2(HO5)2
_symmetry_space_group_name_H-M   'P 1'
_cell_length_a   5.15606127
_cell_length_b   5.50316576
_cell_length_c   7.30399780
_cell_angle_alpha   107.24945241
_cell_angle_beta   106.60975186
_cell_angle_gamma   99.72992902
_symmetry_Int_Tables_number   1
_chemical_formula_structural   Li2MnVP2(HO5)2
_chemical_formula_sum   'Li2 Mn1 V1 P2 H2 O10'
_cell_volume   182.23067559
_cell_formula_units_Z   1
loop_
 _symmetry_equiv_pos_site_id
 _symmetry_equiv_pos_as_xyz
  1  'x, y, z'
loop_
 _atom_site_type_symbol
 _atom_site_label
 _atom_site_symmetry_multiplicity
 _atom_site_fract_x
 _atom_site_fract_y
 _atom_site_fract_z
 _atom_site_occupancy
  Li  Li0  1  0.745637  0.391872  0.822919  1
  Li  Li1  1  0.254363  0.608128  0.177081  1
  Mn  Mn2  1  0.000000  0.000000  0.500000  1
  V  V3  1  0.000000  0.000000  0.000000  1
  P  P4  1  0.671863  0.363697  0.233605  1
  P  P5  1  0.328137  0.636303  0.766395  1
  H  H6  1  0.360974  0.065338  0.343814  1
  H  H7  1  0.639026  0.934662  0.656186  1
  O  O8  1  0.840938  0.043853  0.720457  1
  O  O9  1  0.708601  0.214222  0.382341  1
  O  O10  1  0.307146  0.339427  0.660860  1
  O  O11  1  0.368400  0.254274  0.069962  1
  O  O12  1  0.884114  0.338196  0.117387  1
  O  O13  1  0.115886  0.661804  0.882613  1
  O  O14  1  0.631600  0.745726  0.930038  1
  O  O15  1  0.692854  0.660573  0.339140  1
  O  O16  1  0.291399  0.785778  0.617659  1
  O  O17  1  0.159062  0.956147  0.279543  1
