# generated using pymatgen
data_Ba4PtO6
_symmetry_space_group_name_H-M   'P 1'
_cell_length_a   7.37487372
_cell_length_b   7.37487372
_cell_length_c   7.37487372
_cell_angle_alpha   89.63498419
_cell_angle_beta   89.63498419
_cell_angle_gamma   89.63498419
_symmetry_Int_Tables_number   1
_chemical_formula_structural   Ba4PtO6
_chemical_formula_sum   'Ba8 Pt2 O12'
_cell_volume   401.08593853
_cell_formula_units_Z   2
loop_
 _symmetry_equiv_pos_site_id
 _symmetry_equiv_pos_as_xyz
  1  'x, y, z'
loop_
 _atom_site_type_symbol
 _atom_site_label
 _atom_site_symmetry_multiplicity
 _atom_site_fract_x
 _atom_site_fract_y
 _atom_site_fract_z
 _atom_site_occupancy
  Ba  Ba0  1  0.750000  0.750000  0.750000  1
  Ba  Ba1  1  0.250000  0.250000  0.250000  1
  Ba  Ba2  1  0.620008  0.879992  0.250000  1
  Ba  Ba3  1  0.879992  0.250000  0.620008  1
  Ba  Ba4  1  0.250000  0.620008  0.879992  1
  Ba  Ba5  1  0.379992  0.120008  0.750000  1
  Ba  Ba6  1  0.120008  0.750000  0.379992  1
  Ba  Ba7  1  0.750000  0.379992  0.120008  1
  Pt  Pt8  1  0.000000  0.000000  0.000000  1
  Pt  Pt9  1  0.500000  0.500000  0.500000  1
  O  O10  1  0.560705  0.228172  0.427227  1
  O  O11  1  0.228172  0.427227  0.560705  1
  O  O12  1  0.427227  0.560705  0.228172  1
  O  O13  1  0.271828  0.939295  0.072773  1
  O  O14  1  0.939295  0.072773  0.271828  1
  O  O15  1  0.072773  0.271828  0.939295  1
  O  O16  1  0.439295  0.771828  0.572773  1
  O  O17  1  0.771828  0.572773  0.439295  1
  O  O18  1  0.572773  0.439295  0.771828  1
  O  O19  1  0.728172  0.060705  0.927227  1
  O  O20  1  0.927227  0.728172  0.060705  1
  O  O21  1  0.060705  0.927227  0.728172  1
