# generated using pymatgen
data_Nd3SiAgS7
_symmetry_space_group_name_H-M   'P 1'
_cell_length_a   10.31754065
_cell_length_b   10.31754065
_cell_length_c   5.78558360
_cell_angle_alpha   90.00000000
_cell_angle_beta   90.00000000
_cell_angle_gamma   120.00000000
_symmetry_Int_Tables_number   1
_chemical_formula_structural   Nd3SiAgS7
_chemical_formula_sum   'Nd6 Si2 Ag2 S14'
_cell_volume   533.37196226
_cell_formula_units_Z   2
loop_
 _symmetry_equiv_pos_site_id
 _symmetry_equiv_pos_as_xyz
  1  'x, y, z'
loop_
 _atom_site_type_symbol
 _atom_site_label
 _atom_site_symmetry_multiplicity
 _atom_site_fract_x
 _atom_site_fract_y
 _atom_site_fract_z
 _atom_site_occupancy
  Nd  Nd0  1  0.125302  0.359856  0.247229  1
  Nd  Nd1  1  0.874698  0.640144  0.747229  1
  Nd  Nd2  1  0.640144  0.765446  0.247229  1
  Nd  Nd3  1  0.234554  0.874698  0.247229  1
  Nd  Nd4  1  0.765446  0.125302  0.747229  1
  Nd  Nd5  1  0.359856  0.234554  0.747229  1
  Si  Si6  1  0.333333  0.666667  0.659334  1
  Si  Si7  1  0.666667  0.333333  0.159334  1
  Ag  Ag8  1  0.000000  0.000000  0.313360  1
  Ag  Ag9  1  0.000000  0.000000  0.813360  1
  S  S10  1  0.333333  0.666667  0.025382  1
  S  S11  1  0.666667  0.333333  0.525382  1
  S  S12  1  0.410114  0.525083  0.513549  1
  S  S13  1  0.589886  0.474917  0.013549  1
  S  S14  1  0.474917  0.885031  0.513549  1
  S  S15  1  0.114969  0.589886  0.513549  1
  S  S16  1  0.885031  0.410114  0.013549  1
  S  S17  1  0.525083  0.114969  0.013549  1
  S  S18  1  0.093772  0.269360  0.765325  1
  S  S19  1  0.906228  0.730640  0.265325  1
  S  S20  1  0.730640  0.824412  0.765325  1
  S  S21  1  0.175588  0.906228  0.765325  1
  S  S22  1  0.824412  0.093772  0.265325  1
  S  S23  1  0.269360  0.175588  0.265325  1
