# generated using pymatgen
data_LiNb(TeO4)3
_symmetry_space_group_name_H-M   'P 1'
_cell_length_a   4.96850659
_cell_length_b   8.67605336
_cell_length_c   5.23559351
_cell_angle_alpha   90.00000000
_cell_angle_beta   90.35515831
_cell_angle_gamma   90.00000000
_symmetry_Int_Tables_number   1
_chemical_formula_structural   LiNb(TeO4)3
_chemical_formula_sum   'Li1 Nb1 Te3 O12'
_cell_volume   225.68654173
_cell_formula_units_Z   1
loop_
 _symmetry_equiv_pos_site_id
 _symmetry_equiv_pos_as_xyz
  1  'x, y, z'
loop_
 _atom_site_type_symbol
 _atom_site_label
 _atom_site_symmetry_multiplicity
 _atom_site_fract_x
 _atom_site_fract_y
 _atom_site_fract_z
 _atom_site_occupancy
  Li  Li0  1  0.000000  0.723845  0.000000  1
  Nb  Nb1  1  0.000000  0.109750  0.000000  1
  Te  Te2  1  0.500000  0.416813  0.000000  1
  Te  Te3  1  0.000000  0.919562  0.500000  1
  Te  Te4  1  0.500000  0.605873  0.500000  1
  O  O5  1  0.257794  0.262471  0.877923  1
  O  O6  1  0.284762  0.581955  0.817093  1
  O  O7  1  0.195125  0.918576  0.815288  1
  O  O8  1  0.708419  0.442890  0.686072  1
  O  O9  1  0.788211  0.072869  0.680975  1
  O  O10  1  0.757488  0.751407  0.643438  1
  O  O11  1  0.242512  0.751407  0.356562  1
  O  O12  1  0.211789  0.072869  0.319025  1
  O  O13  1  0.291581  0.442890  0.313928  1
  O  O14  1  0.804875  0.918576  0.184712  1
  O  O15  1  0.715238  0.581955  0.182907  1
  O  O16  1  0.742206  0.262471  0.122077  1
