# generated using pymatgen
data_SrTiH4(OF3)2
_symmetry_space_group_name_H-M   'P 1'
_cell_length_a   6.07349215
_cell_length_b   9.86519807
_cell_length_c   11.92595023
_cell_angle_alpha   90.00000000
_cell_angle_beta   110.75437313
_cell_angle_gamma   90.00000000
_symmetry_Int_Tables_number   1
_chemical_formula_structural   SrTiH4(OF3)2
_chemical_formula_sum   'Sr4 Ti4 H16 O8 F24'
_cell_volume   668.18869819
_cell_formula_units_Z   4
loop_
 _symmetry_equiv_pos_site_id
 _symmetry_equiv_pos_as_xyz
  1  'x, y, z'
loop_
 _atom_site_type_symbol
 _atom_site_label
 _atom_site_symmetry_multiplicity
 _atom_site_fract_x
 _atom_site_fract_y
 _atom_site_fract_z
 _atom_site_occupancy
  Sr  Sr0  1  0.718369  0.313220  0.549274  1
  Sr  Sr1  1  0.281631  0.813220  0.950726  1
  Sr  Sr2  1  0.718369  0.186780  0.049274  1
  Sr  Sr3  1  0.281631  0.686780  0.450726  1
  Ti  Ti4  1  0.361579  0.035769  0.268048  1
  Ti  Ti5  1  0.638421  0.535769  0.231952  1
  Ti  Ti6  1  0.361579  0.464231  0.768048  1
  Ti  Ti7  1  0.638421  0.964231  0.731952  1
  H  H8  1  0.170244  0.353473  0.052850  1
  H  H9  1  0.724236  0.607816  0.672263  1
  H  H10  1  0.023679  0.364417  0.915191  1
  H  H11  1  0.826088  0.632506  0.570022  1
  H  H12  1  0.829756  0.853473  0.447150  1
  H  H13  1  0.173912  0.132506  0.929978  1
  H  H14  1  0.976321  0.864417  0.584809  1
  H  H15  1  0.724236  0.892184  0.172263  1
  H  H16  1  0.275764  0.107816  0.827737  1
  H  H17  1  0.023679  0.135583  0.415191  1
  H  H18  1  0.826088  0.867494  0.070022  1
  H  H19  1  0.170244  0.146527  0.552850  1
  H  H20  1  0.173912  0.367494  0.429978  1
  H  H21  1  0.976321  0.635583  0.084809  1
  H  H22  1  0.275764  0.392184  0.327737  1
  H  H23  1  0.829756  0.646527  0.947150  1
  O  O24  1  0.704256  0.581703  0.589715  1
  O  O25  1  0.048735  0.307125  0.985853  1
  O  O26  1  0.951265  0.807125  0.514147  1
  O  O27  1  0.704256  0.918297  0.089715  1
  O  O28  1  0.295744  0.081703  0.910285  1
  O  O29  1  0.048735  0.192875  0.485853  1
  O  O30  1  0.951265  0.692875  0.014147  1
  O  O31  1  0.295744  0.418297  0.410285  1
  F  F32  1  0.228151  0.939503  0.120579  1
  F  F33  1  0.482033  0.137889  0.409505  1
  F  F34  1  0.355789  0.434292  0.186359  1
  F  F35  1  0.504630  0.656500  0.313563  1
  F  F36  1  0.778470  0.090386  0.659546  1
  F  F37  1  0.495370  0.156500  0.186437  1
  F  F38  1  0.917098  0.855375  0.774242  1
  F  F39  1  0.644211  0.934292  0.313641  1
  F  F40  1  0.517967  0.637889  0.090495  1
  F  F41  1  0.771849  0.439503  0.379421  1
  F  F42  1  0.082902  0.355375  0.725758  1
  F  F43  1  0.221530  0.590386  0.840454  1
  F  F44  1  0.778470  0.409614  0.159546  1
  F  F45  1  0.917098  0.644625  0.274242  1
  F  F46  1  0.228151  0.560497  0.620579  1
  F  F47  1  0.482033  0.362111  0.909505  1
  F  F48  1  0.355789  0.065708  0.686359  1
  F  F49  1  0.082902  0.144625  0.225758  1
  F  F50  1  0.504630  0.843500  0.813563  1
  F  F51  1  0.221530  0.909614  0.340454  1
  F  F52  1  0.495370  0.343500  0.686437  1
  F  F53  1  0.644211  0.565708  0.813641  1
  F  F54  1  0.517967  0.862111  0.590495  1
  F  F55  1  0.771849  0.060497  0.879421  1
