# generated using pymatgen
data_Ti3Co2Ni(PO4)6
_symmetry_space_group_name_H-M   'P 1'
_cell_length_a   8.50557474
_cell_length_b   8.50557474
_cell_length_c   8.50557474
_cell_angle_alpha   61.02742327
_cell_angle_beta   61.02742327
_cell_angle_gamma   61.02742327
_symmetry_Int_Tables_number   1
_chemical_formula_structural   Ti3Co2Ni(PO4)6
_chemical_formula_sum   'Ti3 Co2 Ni1 P6 O24'
_cell_volume   445.17455330
_cell_formula_units_Z   1
loop_
 _symmetry_equiv_pos_site_id
 _symmetry_equiv_pos_as_xyz
  1  'x, y, z'
loop_
 _atom_site_type_symbol
 _atom_site_label
 _atom_site_symmetry_multiplicity
 _atom_site_fract_x
 _atom_site_fract_y
 _atom_site_fract_z
 _atom_site_occupancy
  Ti  Ti0  1  0.857636  0.857636  0.857636  1
  Ti  Ti1  1  0.644051  0.644051  0.644051  1
  Ti  Ti2  1  0.355066  0.355066  0.355066  1
  Co  Co3  1  0.003073  0.003073  0.003073  1
  Co  Co4  1  0.500938  0.500938  0.500938  1
  Ni  Ni5  1  0.142339  0.142339  0.142339  1
  P  P6  1  0.954676  0.247433  0.542824  1
  P  P7  1  0.542824  0.954676  0.247433  1
  P  P8  1  0.750330  0.454850  0.045193  1
  P  P9  1  0.454850  0.045193  0.750330  1
  P  P10  1  0.045193  0.750330  0.454850  1
  P  P11  1  0.247433  0.542824  0.954676  1
  O  O12  1  0.885900  0.675266  0.510013  1
  O  O13  1  0.675266  0.510013  0.885900  1
  O  O14  1  0.941881  0.089809  0.743899  1
  O  O15  1  0.510013  0.885900  0.675266  1
  O  O16  1  0.986791  0.184449  0.390766  1
  O  O17  1  0.758230  0.410987  0.567395  1
  O  O18  1  0.743899  0.941881  0.089809  1
  O  O19  1  0.567395  0.758230  0.410987  1
  O  O20  1  0.816343  0.618633  0.997718  1
  O  O21  1  0.410987  0.567395  0.758230  1
  O  O22  1  0.905576  0.260596  0.053606  1
  O  O23  1  0.618633  0.997718  0.816343  1
  O  O24  1  0.390766  0.986791  0.184449  1
  O  O25  1  0.089809  0.743899  0.941881  1
  O  O26  1  0.587202  0.445966  0.240309  1
  O  O27  1  0.184449  0.390766  0.986791  1
  O  O28  1  0.445966  0.240309  0.587202  1
  O  O29  1  0.260596  0.053606  0.905576  1
  O  O30  1  0.240309  0.587202  0.445966  1
  O  O31  1  0.997718  0.816343  0.618633  1
  O  O32  1  0.497421  0.119223  0.313614  1
  O  O33  1  0.053606  0.905576  0.260596  1
  O  O34  1  0.313614  0.497421  0.119223  1
  O  O35  1  0.119223  0.313614  0.497421  1
