# generated using pymatgen
data_TiH8(NF3)2
_symmetry_space_group_name_H-M   'P 1'
_cell_length_a   5.82372312
_cell_length_b   5.82372312
_cell_length_c   4.88648105
_cell_angle_alpha   90.00000000
_cell_angle_beta   90.00000000
_cell_angle_gamma   120.00000000
_symmetry_Int_Tables_number   1
_chemical_formula_structural   TiH8(NF3)2
_chemical_formula_sum   'Ti1 H8 N2 F6'
_cell_volume   143.52524247
_cell_formula_units_Z   1
loop_
 _symmetry_equiv_pos_site_id
 _symmetry_equiv_pos_as_xyz
  1  'x, y, z'
loop_
 _atom_site_type_symbol
 _atom_site_label
 _atom_site_symmetry_multiplicity
 _atom_site_fract_x
 _atom_site_fract_y
 _atom_site_fract_z
 _atom_site_occupancy
  Ti  Ti0  1  0.000000  0.000000  0.000000  1
  H  H1  1  0.141254  0.570627  0.235812  1
  H  H2  1  0.429373  0.858746  0.235812  1
  H  H3  1  0.429373  0.570627  0.235812  1
  H  H4  1  0.666667  0.333333  0.482834  1
  H  H5  1  0.333333  0.666667  0.517166  1
  H  H6  1  0.570627  0.429373  0.764188  1
  H  H7  1  0.570627  0.141254  0.764188  1
  H  H8  1  0.858746  0.429373  0.764188  1
  N  N9  1  0.333333  0.666667  0.305797  1
  N  N10  1  0.666667  0.333333  0.694203  1
  F  F11  1  0.843429  0.156571  0.216520  1
  F  F12  1  0.843429  0.686859  0.216520  1
  F  F13  1  0.313141  0.156571  0.216520  1
  F  F14  1  0.686859  0.843429  0.783480  1
  F  F15  1  0.156571  0.313141  0.783480  1
  F  F16  1  0.156571  0.843429  0.783480  1
