# generated using pymatgen
data_Li2V2(PO4)3
_symmetry_space_group_name_H-M   'P 1'
_cell_length_a   8.57019697
_cell_length_b   8.68955823
_cell_length_c   14.92535566
_cell_angle_alpha   90.00000000
_cell_angle_beta   124.99246670
_cell_angle_gamma   90.00000000
_symmetry_Int_Tables_number   1
_chemical_formula_structural   Li2V2(PO4)3
_chemical_formula_sum   'Li8 V8 P12 O48'
_cell_volume   910.57911785
_cell_formula_units_Z   4
loop_
 _symmetry_equiv_pos_site_id
 _symmetry_equiv_pos_as_xyz
  1  'x, y, z'
loop_
 _atom_site_type_symbol
 _atom_site_label
 _atom_site_symmetry_multiplicity
 _atom_site_fract_x
 _atom_site_fract_y
 _atom_site_fract_z
 _atom_site_occupancy
  Li  Li0  1  0.882590  0.921316  0.802460  1
  Li  Li1  1  0.527555  0.222701  0.318641  1
  Li  Li2  1  0.472445  0.722701  0.181359  1
  Li  Li3  1  0.117410  0.421316  0.697540  1
  Li  Li4  1  0.882590  0.578684  0.302460  1
  Li  Li5  1  0.527555  0.277299  0.818641  1
  Li  Li6  1  0.472445  0.777299  0.681359  1
  Li  Li7  1  0.117410  0.078684  0.197540  1
  V  V8  1  0.867031  0.967746  0.612660  1
  V  V9  1  0.132969  0.467746  0.887340  1
  V  V10  1  0.367250  0.038773  0.112546  1
  V  V11  1  0.632750  0.538773  0.387454  1
  V  V12  1  0.367250  0.461227  0.612546  1
  V  V13  1  0.632750  0.961227  0.887454  1
  V  V14  1  0.867031  0.532254  0.112660  1
  V  V15  1  0.132969  0.032254  0.387340  1
  P  P16  1  0.040440  0.748569  0.005299  1
  P  P17  1  0.756273  0.616257  0.649503  1
  P  P18  1  0.459653  0.896442  0.355842  1
  P  P19  1  0.243727  0.116257  0.850497  1
  P  P20  1  0.540347  0.396442  0.144158  1
  P  P21  1  0.959560  0.248569  0.494701  1
  P  P22  1  0.040440  0.751431  0.505299  1
  P  P23  1  0.459653  0.603558  0.855842  1
  P  P24  1  0.756273  0.883743  0.149503  1
  P  P25  1  0.540347  0.103558  0.644158  1
  P  P26  1  0.243727  0.383743  0.350497  1
  P  P27  1  0.959560  0.251431  0.994701  1
  O  O28  1  0.117435  0.132826  0.068951  1
  O  O29  1  0.712005  0.102849  0.634433  1
  O  O30  1  0.993234  0.325855  0.912388  1
  O  O31  1  0.400357  0.407614  0.329905  1
  O  O32  1  0.032680  0.631683  0.925552  1
  O  O33  1  0.683427  0.581014  0.531980  1
  O  O34  1  0.811835  0.790476  0.676448  1
  O  O35  1  0.409246  0.018984  0.266249  1
  O  O36  1  0.482410  0.737832  0.318878  1
  O  O37  1  0.236699  0.825532  0.072641  1
  O  O38  1  0.643465  0.945960  0.463488  1
  O  O39  1  0.930848  0.510464  0.727140  1
  O  O40  1  0.069152  0.010464  0.772860  1
  O  O41  1  0.356535  0.445960  0.036512  1
  O  O42  1  0.763301  0.325532  0.427359  1
  O  O43  1  0.517590  0.237832  0.181122  1
  O  O44  1  0.188165  0.290476  0.823552  1
  O  O45  1  0.316573  0.081014  0.968020  1
  O  O46  1  0.590754  0.518984  0.233751  1
  O  O47  1  0.967320  0.131683  0.574448  1
  O  O48  1  0.006766  0.825855  0.587612  1
  O  O49  1  0.287995  0.602849  0.865567  1
  O  O50  1  0.599643  0.907614  0.170095  1
  O  O51  1  0.882565  0.632826  0.431049  1
  O  O52  1  0.117435  0.367174  0.568951  1
  O  O53  1  0.400357  0.092386  0.829905  1
  O  O54  1  0.712005  0.397151  0.134433  1
  O  O55  1  0.993234  0.174145  0.412388  1
  O  O56  1  0.032680  0.868317  0.425552  1
  O  O57  1  0.409246  0.481016  0.766249  1
  O  O58  1  0.683427  0.918986  0.031980  1
  O  O59  1  0.811835  0.709524  0.176448  1
  O  O60  1  0.482410  0.762168  0.818878  1
  O  O61  1  0.236699  0.674468  0.572641  1
  O  O62  1  0.643465  0.554040  0.963488  1
  O  O63  1  0.930848  0.989536  0.227140  1
  O  O64  1  0.069152  0.489536  0.272860  1
  O  O65  1  0.356535  0.054040  0.536512  1
  O  O66  1  0.763301  0.174468  0.927359  1
  O  O67  1  0.517590  0.262168  0.681122  1
  O  O68  1  0.590754  0.981016  0.733751  1
  O  O69  1  0.188165  0.209524  0.323552  1
  O  O70  1  0.316573  0.418986  0.468020  1
  O  O71  1  0.967320  0.368317  0.074448  1
  O  O72  1  0.599643  0.592386  0.670095  1
  O  O73  1  0.006766  0.674145  0.087612  1
  O  O74  1  0.287995  0.897151  0.365567  1
  O  O75  1  0.882565  0.867174  0.931049  1
