# generated using pymatgen
data_Li3Fe4F19
_symmetry_space_group_name_H-M   'P 1'
_cell_length_a   5.26190248
_cell_length_b   10.55447025
_cell_length_c   12.48214075
_cell_angle_alpha   104.19743732
_cell_angle_beta   95.32519202
_cell_angle_gamma   100.99142237
_symmetry_Int_Tables_number   1
_chemical_formula_structural   Li3Fe4F19
_chemical_formula_sum   'Li6 Fe8 F38'
_cell_volume   652.58072446
_cell_formula_units_Z   2
loop_
 _symmetry_equiv_pos_site_id
 _symmetry_equiv_pos_as_xyz
  1  'x, y, z'
loop_
 _atom_site_type_symbol
 _atom_site_label
 _atom_site_symmetry_multiplicity
 _atom_site_fract_x
 _atom_site_fract_y
 _atom_site_fract_z
 _atom_site_occupancy
  Li  Li0  1  0.545795  0.839277  0.930636  1
  Li  Li1  1  0.260404  0.251213  0.513631  1
  Li  Li2  1  0.397180  0.521069  0.208471  1
  Li  Li3  1  0.602820  0.478931  0.791529  1
  Li  Li4  1  0.739596  0.748787  0.486369  1
  Li  Li5  1  0.454205  0.160723  0.069364  1
  Fe  Fe6  1  0.112942  0.935783  0.779622  1
  Fe  Fe7  1  0.121825  0.617054  0.627373  1
  Fe  Fe8  1  0.062027  0.346111  0.949829  1
  Fe  Fe9  1  0.355713  0.892227  0.370720  1
  Fe  Fe10  1  0.644287  0.107773  0.629280  1
  Fe  Fe11  1  0.937973  0.653889  0.050171  1
  Fe  Fe12  1  0.878175  0.382946  0.372627  1
  Fe  Fe13  1  0.887058  0.064217  0.220378  1
  F  F14  1  0.087201  0.814869  0.429490  1
  F  F15  1  0.121786  0.990322  0.313247  1
  F  F16  1  0.353635  0.019392  0.920778  1
  F  F17  1  0.147065  0.757704  0.201479  1
  F  F18  1  0.205507  0.724414  0.988578  1
  F  F19  1  0.286138  0.789610  0.789583  1
  F  F20  1  0.132755  0.528735  0.088636  1
  F  F21  1  0.126631  0.421025  0.511087  1
  F  F22  1  0.030192  0.217497  0.361513  1
  F  F23  1  0.136225  0.453715  0.307783  1
  F  F24  1  0.118248  0.153467  0.873432  1
  F  F25  1  0.382166  0.691540  0.564450  1
  F  F26  1  0.350161  0.550542  0.706560  1
  F  F27  1  0.320556  0.414461  0.883893  1
  F  F28  1  0.486066  0.729857  0.334878  1
  F  F29  1  0.612427  0.980775  0.297946  1
  F  F30  1  0.162743  0.114352  0.149756  1
  F  F31  1  0.302251  0.324532  0.060095  1
  F  F32  1  0.619854  0.918301  0.502315  1
  F  F33  1  0.380146  0.081699  0.497685  1
  F  F34  1  0.697749  0.675468  0.939905  1
  F  F35  1  0.837257  0.885648  0.850244  1
  F  F36  1  0.387573  0.019225  0.702054  1
  F  F37  1  0.513934  0.270143  0.665122  1
  F  F38  1  0.679444  0.585539  0.116107  1
  F  F39  1  0.649839  0.449458  0.293440  1
  F  F40  1  0.617834  0.308460  0.435550  1
  F  F41  1  0.881752  0.846533  0.126568  1
  F  F42  1  0.863775  0.546285  0.692217  1
  F  F43  1  0.969808  0.782503  0.638487  1
  F  F44  1  0.873369  0.578975  0.488913  1
  F  F45  1  0.867245  0.471265  0.911364  1
  F  F46  1  0.713862  0.210390  0.210417  1
  F  F47  1  0.794493  0.275586  0.011422  1
  F  F48  1  0.852935  0.242296  0.798521  1
  F  F49  1  0.646365  0.980608  0.079222  1
  F  F50  1  0.878214  0.009678  0.686753  1
  F  F51  1  0.912799  0.185131  0.570510  1
