# generated using pymatgen
data_Li8CeO6
_symmetry_space_group_name_H-M   'P 1'
_cell_length_a   6.31729952
_cell_length_b   6.31729952
_cell_length_c   6.31729952
_cell_angle_alpha   53.18806116
_cell_angle_beta   53.18806116
_cell_angle_gamma   53.18806116
_symmetry_Int_Tables_number   1
_chemical_formula_structural   Li8CeO6
_chemical_formula_sum   'Li8 Ce1 O6'
_cell_volume   149.82488412
_cell_formula_units_Z   1
loop_
 _symmetry_equiv_pos_site_id
 _symmetry_equiv_pos_as_xyz
  1  'x, y, z'
loop_
 _atom_site_type_symbol
 _atom_site_label
 _atom_site_symmetry_multiplicity
 _atom_site_fract_x
 _atom_site_fract_y
 _atom_site_fract_z
 _atom_site_occupancy
  Li  Li0  1  0.646471  0.646471  0.646471  1
  Li  Li1  1  0.102384  0.770715  0.497368  1
  Li  Li2  1  0.497368  0.102384  0.770715  1
  Li  Li3  1  0.770715  0.497368  0.102384  1
  Li  Li4  1  0.897616  0.229285  0.502632  1
  Li  Li5  1  0.502632  0.897616  0.229285  1
  Li  Li6  1  0.353529  0.353529  0.353529  1
  Li  Li7  1  0.229285  0.502632  0.897616  1
  Ce  Ce8  1  0.000000  0.000000  0.000000  1
  O  O9  1  0.099874  0.395683  0.759548  1
  O  O10  1  0.604317  0.240452  0.900126  1
  O  O11  1  0.900126  0.604317  0.240452  1
  O  O12  1  0.759548  0.099874  0.395683  1
  O  O13  1  0.395683  0.759548  0.099874  1
  O  O14  1  0.240452  0.900126  0.604317  1
