# generated using pymatgen
data_Li2Mg11(WO4)12
_symmetry_space_group_name_H-M   'P 1'
_cell_length_a   5.27468055
_cell_length_b   10.76840118
_cell_length_c   17.77159868
_cell_angle_alpha   90.00000000
_cell_angle_beta   90.34587521
_cell_angle_gamma   90.00000000
_symmetry_Int_Tables_number   1
_chemical_formula_structural   Li2Mg11(WO4)12
_chemical_formula_sum   'Li2 Mg11 W12 O48'
_cell_volume   1009.40621258
_cell_formula_units_Z   1
loop_
 _symmetry_equiv_pos_site_id
 _symmetry_equiv_pos_as_xyz
  1  'x, y, z'
loop_
 _atom_site_type_symbol
 _atom_site_label
 _atom_site_symmetry_multiplicity
 _atom_site_fract_x
 _atom_site_fract_y
 _atom_site_fract_z
 _atom_site_occupancy
  Li  Li0  1  0.757328  0.500000  0.292896  1
  Li  Li1  1  0.895380  0.000000  0.249736  1
  Mg  Mg2  1  0.104431  0.500000  0.749267  1
  Mg  Mg3  1  0.242220  0.324149  0.029539  1
  Mg  Mg4  1  0.242220  0.675851  0.029539  1
  Mg  Mg5  1  0.260905  0.827618  0.530477  1
  Mg  Mg6  1  0.260905  0.172382  0.530477  1
  Mg  Mg7  1  0.394192  0.000000  0.249126  1
  Mg  Mg8  1  0.604495  0.500000  0.750895  1
  Mg  Mg9  1  0.743176  0.323175  0.470756  1
  Mg  Mg10  1  0.743176  0.676825  0.470756  1
  Mg  Mg11  1  0.760830  0.827325  0.970073  1
  Mg  Mg12  1  0.760830  0.172675  0.970073  1
  W  W13  1  0.221461  0.000000  0.056571  1
  W  W14  1  0.218872  0.277365  0.342456  1
  W  W15  1  0.218872  0.722635  0.342456  1
  W  W16  1  0.279267  0.775083  0.842105  1
  W  W17  1  0.279267  0.224917  0.842105  1
  W  W18  1  0.283945  0.500000  0.556462  1
  W  W19  1  0.720069  0.000000  0.442518  1
  W  W20  1  0.721682  0.726528  0.157650  1
  W  W21  1  0.721682  0.273472  0.157650  1
  W  W22  1  0.781001  0.775751  0.658321  1
  W  W23  1  0.781001  0.224249  0.658321  1
  W  W24  1  0.782683  0.500000  0.943256  1
  O  O25  1  0.047135  0.860185  0.620155  1
  O  O26  1  0.047135  0.139815  0.620155  1
  O  O27  1  0.066556  0.500000  0.004607  1
  O  O28  1  0.079124  0.864628  0.785116  1
  O  O29  1  0.079124  0.135372  0.785116  1
  O  O30  1  0.079801  0.263312  0.926907  1
  O  O31  1  0.079801  0.736688  0.926907  1
  O  O32  1  0.085609  0.366900  0.534839  1
  O  O33  1  0.085609  0.633100  0.534839  1
  O  O34  1  0.152209  0.869186  0.294506  1
  O  O35  1  0.152209  0.130814  0.294506  1
  O  O36  1  0.149515  0.000000  0.155305  1
  O  O37  1  0.355685  0.500000  0.656873  1
  O  O38  1  0.355086  0.373986  0.793773  1
  O  O39  1  0.355086  0.626014  0.793773  1
  O  O40  1  0.417860  0.134467  0.035016  1
  O  O41  1  0.417860  0.865533  0.035016  1
  O  O42  1  0.413191  0.760583  0.428223  1
  O  O43  1  0.413191  0.239417  0.428223  1
  O  O44  1  0.429274  0.369624  0.289624  1
  O  O45  1  0.429274  0.630376  0.289624  1
  O  O46  1  0.437399  0.000000  0.504018  1
  O  O47  1  0.452529  0.358140  0.121074  1
  O  O48  1  0.452529  0.641860  0.121074  1
  O  O49  1  0.546938  0.860026  0.879438  1
  O  O50  1  0.546938  0.139974  0.879438  1
  O  O51  1  0.565881  0.500000  0.495040  1
  O  O52  1  0.579877  0.865550  0.713977  1
  O  O53  1  0.579877  0.134450  0.713977  1
  O  O54  1  0.580592  0.263368  0.573053  1
  O  O55  1  0.580592  0.736632  0.573053  1
  O  O56  1  0.585457  0.366665  0.964594  1
  O  O57  1  0.585457  0.633335  0.964594  1
  O  O58  1  0.636703  0.871199  0.204547  1
  O  O59  1  0.636703  0.128801  0.204547  1
  O  O60  1  0.636165  0.000000  0.344676  1
  O  O61  1  0.855418  0.500000  0.843109  1
  O  O62  1  0.854667  0.374081  0.706383  1
  O  O63  1  0.854667  0.625919  0.706383  1
  O  O64  1  0.916147  0.864383  0.463466  1
  O  O65  1  0.916147  0.135617  0.463466  1
  O  O66  1  0.923346  0.762512  0.073253  1
  O  O67  1  0.923346  0.237488  0.073253  1
  O  O68  1  0.909736  0.366846  0.218737  1
  O  O69  1  0.909736  0.633154  0.218737  1
  O  O70  1  0.933801  0.000000  0.995875  1
  O  O71  1  0.941065  0.363083  0.376827  1
  O  O72  1  0.941065  0.636917  0.376827  1
