# generated using pymatgen
data_LiNi(PO3)4
_symmetry_space_group_name_H-M   'P 1'
_cell_length_a   7.47446310
_cell_length_b   7.47446310
_cell_length_c   18.24461740
_cell_angle_alpha   90.00000000
_cell_angle_beta   90.00000000
_cell_angle_gamma   100.64373615
_symmetry_Int_Tables_number   1
_chemical_formula_structural   LiNi(PO3)4
_chemical_formula_sum   'Li4 Ni4 P16 O48'
_cell_volume   1001.74583828
_cell_formula_units_Z   4
loop_
 _symmetry_equiv_pos_site_id
 _symmetry_equiv_pos_as_xyz
  1  'x, y, z'
loop_
 _atom_site_type_symbol
 _atom_site_label
 _atom_site_symmetry_multiplicity
 _atom_site_fract_x
 _atom_site_fract_y
 _atom_site_fract_z
 _atom_site_occupancy
  Li  Li0  1  0.111248  0.204871  0.355773  1
  Li  Li1  1  0.795129  0.888752  0.144227  1
  Li  Li2  1  0.888752  0.795129  0.855773  1
  Li  Li3  1  0.204871  0.111248  0.644227  1
  Ni  Ni4  1  0.967559  0.572289  0.110814  1
  Ni  Ni5  1  0.427711  0.032441  0.389186  1
  Ni  Ni6  1  0.032441  0.427711  0.610814  1
  Ni  Ni7  1  0.572289  0.967559  0.889186  1
  P  P8  1  0.763464  0.043048  0.649424  1
  P  P9  1  0.956952  0.236536  0.850576  1
  P  P10  1  0.777405  0.293465  0.991888  1
  P  P11  1  0.706535  0.222595  0.508112  1
  P  P12  1  0.625964  0.374036  0.250000  1
  P  P13  1  0.342118  0.248574  0.811091  1
  P  P14  1  0.751426  0.657882  0.688909  1
  P  P15  1  0.353947  0.353947  0.500000  1
  P  P16  1  0.646053  0.646053  1.000000  1
  P  P17  1  0.248574  0.342118  0.188909  1
  P  P18  1  0.657882  0.751426  0.311091  1
  P  P19  1  0.374036  0.625964  0.750000  1
  P  P20  1  0.293465  0.777405  0.008112  1
  P  P21  1  0.222595  0.706535  0.491888  1
  P  P22  1  0.043048  0.763464  0.350576  1
  P  P23  1  0.236536  0.956952  0.149424  1
  O  O24  1  0.842364  0.047014  0.850803  1
  O  O25  1  0.952986  0.157636  0.649197  1
  O  O26  1  0.941852  0.348841  0.783580  1
  O  O27  1  0.651159  0.058148  0.716420  1
  O  O28  1  0.895827  0.328707  0.515700  1
  O  O29  1  0.671293  0.104173  0.984300  1
  O  O30  1  0.654364  0.085716  0.577791  1
  O  O31  1  0.914284  0.345636  0.922209  1
  O  O32  1  0.666675  0.114427  0.438879  1
  O  O33  1  0.885573  0.333325  0.061121  1
  O  O34  1  0.800206  0.417204  0.206676  1
  O  O35  1  0.582796  0.199794  0.293324  1
  O  O36  1  0.805120  0.504612  0.646640  1
  O  O37  1  0.495388  0.194880  0.853360  1
  O  O38  1  0.563691  0.358548  0.518722  1
  O  O39  1  0.641452  0.436309  0.981278  1
  O  O40  1  0.835994  0.785913  0.364967  1
  O  O41  1  0.214087  0.164006  0.135033  1
  O  O42  1  0.613030  0.531603  0.308821  1
  O  O43  1  0.468397  0.386970  0.191179  1
  O  O44  1  0.754630  0.696610  0.068981  1
  O  O45  1  0.303390  0.245370  0.431019  1
  O  O46  1  0.293079  0.169174  0.737380  1
  O  O47  1  0.830826  0.706921  0.762620  1
  O  O48  1  0.169174  0.293079  0.262620  1
  O  O49  1  0.706921  0.830826  0.237380  1
  O  O50  1  0.245370  0.303390  0.568981  1
  O  O51  1  0.696610  0.754630  0.931019  1
  O  O52  1  0.531603  0.613030  0.691179  1
  O  O53  1  0.386970  0.468397  0.808821  1
  O  O54  1  0.164006  0.214087  0.864967  1
  O  O55  1  0.785913  0.835994  0.635033  1
  O  O56  1  0.436309  0.641452  0.018722  1
  O  O57  1  0.358548  0.563691  0.481278  1
  O  O58  1  0.504612  0.805120  0.353360  1
  O  O59  1  0.194880  0.495388  0.146640  1
  O  O60  1  0.417204  0.800206  0.793324  1
  O  O61  1  0.199794  0.582796  0.706676  1
  O  O62  1  0.114427  0.666675  0.561121  1
  O  O63  1  0.333325  0.885573  0.938879  1
  O  O64  1  0.085716  0.654364  0.422209  1
  O  O65  1  0.345636  0.914284  0.077791  1
  O  O66  1  0.328707  0.895827  0.484300  1
  O  O67  1  0.104173  0.671293  0.015700  1
  O  O68  1  0.058148  0.651159  0.283580  1
  O  O69  1  0.348841  0.941852  0.216420  1
  O  O70  1  0.157636  0.952986  0.350803  1
  O  O71  1  0.047014  0.842364  0.149197  1
