# generated using pymatgen
data_NaTlO
_symmetry_space_group_name_H-M   'P 1'
_cell_length_a   6.14336691
_cell_length_b   3.64919341
_cell_length_c   12.80177825
_cell_angle_alpha   90.00000000
_cell_angle_beta   90.05316931
_cell_angle_gamma   90.00000000
_symmetry_Int_Tables_number   1
_chemical_formula_structural   NaTlO
_chemical_formula_sum   'Na4 Tl4 O4'
_cell_volume   286.99441744
_cell_formula_units_Z   4
loop_
 _symmetry_equiv_pos_site_id
 _symmetry_equiv_pos_as_xyz
  1  'x, y, z'
loop_
 _atom_site_type_symbol
 _atom_site_label
 _atom_site_symmetry_multiplicity
 _atom_site_fract_x
 _atom_site_fract_y
 _atom_site_fract_z
 _atom_site_occupancy
  Na  Na0  1  0.335479  0.000000  0.409686  1
  Na  Na1  1  0.328550  0.000000  0.083405  1
  Na  Na2  1  0.166552  0.500000  0.924214  1
  Na  Na3  1  0.838117  0.500000  0.088252  1
  Tl  Tl4  1  0.665497  0.000000  0.610173  1
  Tl  Tl5  1  0.666522  0.000000  0.904425  1
  Tl  Tl6  1  0.171391  0.500000  0.607187  1
  Tl  Tl7  1  0.830253  0.500000  0.377056  1
  O  O8  1  0.992946  0.000000  0.005758  1
  O  O9  1  0.003283  0.000000  0.489114  1
  O  O10  1  0.499934  0.500000  0.019086  1
  O  O11  1  0.501575  0.500000  0.481642  1
