# generated using pymatgen
data_Li5Mn6(BO3)6
_symmetry_space_group_name_H-M   'P 1'
_cell_length_a   5.26762160
_cell_length_b   8.29569735
_cell_length_c   9.34902903
_cell_angle_alpha   103.62365660
_cell_angle_beta   105.78068572
_cell_angle_gamma   90.95861216
_symmetry_Int_Tables_number   1
_chemical_formula_structural   Li5Mn6(BO3)6
_chemical_formula_sum   'Li5 Mn6 B6 O18'
_cell_volume   380.65178339
_cell_formula_units_Z   1
loop_
 _symmetry_equiv_pos_site_id
 _symmetry_equiv_pos_as_xyz
  1  'x, y, z'
loop_
 _atom_site_type_symbol
 _atom_site_label
 _atom_site_symmetry_multiplicity
 _atom_site_fract_x
 _atom_site_fract_y
 _atom_site_fract_z
 _atom_site_occupancy
  Li  Li0  1  0.981435  0.368289  0.290530  1
  Li  Li1  1  0.332321  0.958384  0.360514  1
  Li  Li2  1  0.667399  0.041723  0.640198  1
  Li  Li3  1  0.000746  0.623003  0.694684  1
  Li  Li4  1  0.330004  0.704633  0.971423  1
  Mn  Mn5  1  0.779634  0.029715  0.207781  1
  Mn  Mn6  1  0.875654  0.630018  0.115699  1
  Mn  Mn7  1  0.549379  0.304050  0.450201  1
  Mn  Mn8  1  0.440203  0.692884  0.542286  1
  Mn  Mn9  1  0.123245  0.356587  0.890981  1
  Mn  Mn10  1  0.227366  0.973876  0.788945  1
  B  B11  1  0.229565  0.144767  0.111372  1
  B  B12  1  0.440167  0.518429  0.226165  1
  B  B13  1  0.106409  0.183369  0.557048  1
  B  B14  1  0.889739  0.816129  0.441183  1
  B  B15  1  0.564810  0.491598  0.777854  1
  B  B16  1  0.775992  0.848290  0.888406  1
  O  O17  1  0.981276  0.174461  0.121956  1
  O  O18  1  0.689589  0.818917  0.010907  1
  O  O19  1  0.259923  0.564238  0.104278  1
  O  O20  1  0.414154  0.095591  0.229906  1
  O  O21  1  0.700558  0.507283  0.234765  1
  O  O22  1  0.341906  0.482428  0.342011  1
  O  O23  1  0.925983  0.232788  0.438355  1
  O  O24  1  0.974856  0.842618  0.317186  1
  O  O25  1  0.359296  0.151867  0.549594  1
  O  O26  1  0.637435  0.847991  0.449562  1
  O  O27  1  0.022421  0.155829  0.680509  1
  O  O28  1  0.071494  0.769841  0.561684  1
  O  O29  1  0.638950  0.514057  0.649537  1
  O  O30  1  0.309576  0.511744  0.786131  1
  O  O31  1  0.595309  0.897087  0.770002  1
  O  O32  1  0.763904  0.459280  0.897104  1
  O  O33  1  0.304846  0.170644  0.986404  1
  O  O34  1  0.029543  0.818673  0.882270  1
