# generated using pymatgen
data_Li4Ti3Ni3(SnO8)2
_symmetry_space_group_name_H-M   'P 1'
_cell_length_a   5.91934555
_cell_length_b   5.95465996
_cell_length_c   9.75763101
_cell_angle_alpha   89.60401875
_cell_angle_beta   89.49425314
_cell_angle_gamma   60.30810972
_symmetry_Int_Tables_number   1
_chemical_formula_structural   Li4Ti3Ni3(SnO8)2
_chemical_formula_sum   'Li4 Ti3 Ni3 Sn2 O16'
_cell_volume   298.76307072
_cell_formula_units_Z   1
loop_
 _symmetry_equiv_pos_site_id
 _symmetry_equiv_pos_as_xyz
  1  'x, y, z'
loop_
 _atom_site_type_symbol
 _atom_site_label
 _atom_site_symmetry_multiplicity
 _atom_site_fract_x
 _atom_site_fract_y
 _atom_site_fract_z
 _atom_site_occupancy
  Li  Li0  1  0.666593  0.667941  0.892527  1
  Li  Li1  1  0.012798  0.997392  0.992620  1
  Li  Li2  1  0.002614  0.000078  0.494373  1
  Li  Li3  1  0.334848  0.327705  0.398895  1
  Ti  Ti4  1  0.823860  0.340450  0.216463  1
  Ti  Ti5  1  0.829607  0.829797  0.214317  1
  Ti  Ti6  1  0.661131  0.162748  0.714856  1
  Ni  Ni7  1  0.342621  0.829252  0.213084  1
  Ni  Ni8  1  0.170574  0.168576  0.711263  1
  Ni  Ni9  1  0.170814  0.659444  0.715493  1
  Sn  Sn10  1  0.658508  0.669509  0.494166  1
  Sn  Sn11  1  0.320241  0.340391  0.988499  1
  O  O12  1  0.820427  0.325121  0.597878  1
  O  O13  1  0.966591  0.517448  0.334854  1
  O  O14  1  0.691054  0.654720  0.103492  1
  O  O15  1  0.988092  0.005918  0.307292  1
  O  O16  1  0.995985  0.025039  0.807338  1
  O  O17  1  0.844813  0.832967  0.606015  1
  O  O18  1  0.529058  0.503978  0.341604  1
  O  O19  1  0.532880  0.961664  0.343435  1
  O  O20  1  0.668370  0.167751  0.103118  1
  O  O21  1  0.312696  0.843658  0.603600  1
  O  O22  1  0.503634  0.033961  0.844183  1
  O  O23  1  0.472347  0.492568  0.833620  1
  O  O24  1  0.344068  0.307487  0.606541  1
  O  O25  1  0.149882  0.172879  0.100559  1
  O  O26  1  0.036118  0.481239  0.829223  1
  O  O27  1  0.149774  0.680020  0.098530  1
