# generated using pymatgen
data_Li2Mn3(BO3)3
_symmetry_space_group_name_H-M   'P 1'
_cell_length_a   5.26947693
_cell_length_b   8.30121700
_cell_length_c   9.25556125
_cell_angle_alpha   104.33468775
_cell_angle_beta   105.66162234
_cell_angle_gamma   90.63126923
_symmetry_Int_Tables_number   1
_chemical_formula_structural   Li2Mn3(BO3)3
_chemical_formula_sum   'Li4 Mn6 B6 O18'
_cell_volume   376.38040686
_cell_formula_units_Z   2
loop_
 _symmetry_equiv_pos_site_id
 _symmetry_equiv_pos_as_xyz
  1  'x, y, z'
loop_
 _atom_site_type_symbol
 _atom_site_label
 _atom_site_symmetry_multiplicity
 _atom_site_fract_x
 _atom_site_fract_y
 _atom_site_fract_z
 _atom_site_occupancy
  Li  Li0  1  0.985445  0.369390  0.292369  1
  Li  Li1  1  0.335645  0.951286  0.357326  1
  Li  Li2  1  0.659319  0.043313  0.641767  1
  Li  Li3  1  0.307631  0.700397  0.955972  1
  Mn  Mn4  1  0.780893  0.029857  0.205761  1
  Mn  Mn5  1  0.864898  0.629279  0.114287  1
  Mn  Mn6  1  0.554092  0.305197  0.451367  1
  Mn  Mn7  1  0.457638  0.690204  0.555927  1
  Mn  Mn8  1  0.129951  0.357547  0.889223  1
  Mn  Mn9  1  0.199782  0.967977  0.780384  1
  B  B10  1  0.223467  0.133757  0.103711  1
  B  B11  1  0.436494  0.526029  0.229364  1
  B  B12  1  0.109183  0.179035  0.553366  1
  B  B13  1  0.896502  0.824214  0.443973  1
  B  B14  1  0.570333  0.489222  0.783679  1
  B  B15  1  0.771780  0.851802  0.889586  1
  O  O16  1  0.981450  0.176347  0.117406  1
  O  O17  1  0.684951  0.810313  0.007799  1
  O  O18  1  0.258014  0.576566  0.111009  1
  O  O19  1  0.410013  0.090085  0.224164  1
  O  O20  1  0.696159  0.506398  0.231312  1
  O  O21  1  0.344138  0.488719  0.347271  1
  O  O22  1  0.927697  0.227970  0.435234  1
  O  O23  1  0.970089  0.831402  0.309081  1
  O  O24  1  0.361540  0.148480  0.546411  1
  O  O25  1  0.644627  0.846680  0.453808  1
  O  O26  1  0.021927  0.147200  0.676282  1
  O  O27  1  0.101768  0.806544  0.570443  1
  O  O28  1  0.636395  0.506630  0.652612  1
  O  O29  1  0.320782  0.503384  0.796300  1
  O  O30  1  0.585904  0.900566  0.772616  1
  O  O31  1  0.779520  0.464445  0.907243  1
  O  O32  1  0.297291  0.148708  0.970334  1
  O  O33  1  0.031520  0.839887  0.890811  1
