# generated using pymatgen
data_Li4Fe3Co3(TeO8)2
_symmetry_space_group_name_H-M   'P 1'
_cell_length_a   5.99068940
_cell_length_b   5.99068940
_cell_length_c   9.75046276
_cell_angle_alpha   89.44070327
_cell_angle_beta   90.55929673
_cell_angle_gamma   120.18161855
_symmetry_Int_Tables_number   1
_chemical_formula_structural   Li4Fe3Co3(TeO8)2
_chemical_formula_sum   'Li4 Fe3 Co3 Te2 O16'
_cell_volume   302.47132496
_cell_formula_units_Z   1
loop_
 _symmetry_equiv_pos_site_id
 _symmetry_equiv_pos_as_xyz
  1  'x, y, z'
loop_
 _atom_site_type_symbol
 _atom_site_label
 _atom_site_symmetry_multiplicity
 _atom_site_fract_x
 _atom_site_fract_y
 _atom_site_fract_z
 _atom_site_occupancy
  Li  Li0  1  0.664896  0.335104  0.089101  1
  Li  Li1  1  0.001611  0.998389  0.013558  1
  Li  Li2  1  0.004860  0.995140  0.517343  1
  Li  Li3  1  0.333452  0.666548  0.589213  1
  Fe  Fe4  1  0.829980  0.170020  0.785781  1
  Fe  Fe5  1  0.659156  0.831119  0.287284  1
  Fe  Fe6  1  0.168881  0.340844  0.287284  1
  Co  Co7  1  0.824901  0.655625  0.789540  1
  Co  Co8  1  0.344375  0.175099  0.789540  1
  Co  Co9  1  0.172728  0.827272  0.287949  1
  Te  Te10  1  0.664740  0.335260  0.517550  1
  Te  Te11  1  0.330860  0.669140  0.014871  1
  O  O12  1  0.825462  0.657276  0.410910  1
  O  O13  1  0.518813  0.481187  0.648299  1
  O  O14  1  0.667941  0.332059  0.886947  1
  O  O15  1  0.003043  0.996957  0.707911  1
  O  O16  1  0.997308  0.002692  0.202690  1
  O  O17  1  0.342724  0.174538  0.410910  1
  O  O18  1  0.963279  0.475350  0.646538  1
  O  O19  1  0.524650  0.036721  0.646538  1
  O  O20  1  0.168874  0.831126  0.909942  1
  O  O21  1  0.826764  0.173236  0.407005  1
  O  O22  1  0.487461  0.962734  0.144688  1
  O  O23  1  0.037266  0.512539  0.144688  1
  O  O24  1  0.340578  0.659422  0.390756  1
  O  O25  1  0.654145  0.831063  0.908435  1
  O  O26  1  0.480286  0.519714  0.147862  1
  O  O27  1  0.168937  0.345855  0.908435  1
