# generated using pymatgen
data_P3(WO6)2
_symmetry_space_group_name_H-M   'P 1'
_cell_length_a   9.09629369
_cell_length_b   9.09629369
_cell_length_c   9.09629369
_cell_angle_alpha   57.17694866
_cell_angle_beta   57.17694866
_cell_angle_gamma   57.17694866
_symmetry_Int_Tables_number   1
_chemical_formula_structural   P3(WO6)2
_chemical_formula_sum   'P6 W4 O24'
_cell_volume   497.59208773
_cell_formula_units_Z   2
loop_
 _symmetry_equiv_pos_site_id
 _symmetry_equiv_pos_as_xyz
  1  'x, y, z'
loop_
 _atom_site_type_symbol
 _atom_site_label
 _atom_site_symmetry_multiplicity
 _atom_site_fract_x
 _atom_site_fract_y
 _atom_site_fract_z
 _atom_site_occupancy
  P  P0  1  0.247991  0.534541  0.967156  1
  P  P1  1  0.967156  0.247991  0.534541  1
  P  P2  1  0.534541  0.967156  0.247991  1
  P  P3  1  0.465459  0.032844  0.752009  1
  P  P4  1  0.032844  0.752009  0.465459  1
  P  P5  1  0.752009  0.465459  0.032844  1
  W  W6  1  0.856216  0.856216  0.856216  1
  W  W7  1  0.645591  0.645591  0.645591  1
  W  W8  1  0.354409  0.354409  0.354409  1
  W  W9  1  0.143784  0.143784  0.143784  1
  O  O10  1  0.765579  0.485137  0.848015  1
  O  O11  1  0.485137  0.848015  0.765579  1
  O  O12  1  0.848015  0.765579  0.485137  1
  O  O13  1  0.438775  0.530307  0.813305  1
  O  O14  1  0.091443  0.720148  0.908984  1
  O  O15  1  0.206103  0.374461  0.995060  1
  O  O16  1  0.908984  0.091443  0.720148  1
  O  O17  1  0.813305  0.438775  0.530307  1
  O  O18  1  0.530307  0.813305  0.438775  1
  O  O19  1  0.625539  0.004940  0.793897  1
  O  O20  1  0.279852  0.091016  0.908557  1
  O  O21  1  0.004940  0.793897  0.625539  1
  O  O22  1  0.995060  0.206103  0.374461  1
  O  O23  1  0.720148  0.908984  0.091443  1
  O  O24  1  0.374461  0.995060  0.206103  1
  O  O25  1  0.469693  0.186695  0.561225  1
  O  O26  1  0.186695  0.561225  0.469693  1
  O  O27  1  0.091016  0.908557  0.279852  1
  O  O28  1  0.793897  0.625539  0.004940  1
  O  O29  1  0.908557  0.279852  0.091016  1
  O  O30  1  0.561225  0.469693  0.186695  1
  O  O31  1  0.151985  0.234421  0.514863  1
  O  O32  1  0.514863  0.151985  0.234421  1
  O  O33  1  0.234421  0.514863  0.151985  1
