# generated using pymatgen
data_ReTeSeCl4
_symmetry_space_group_name_H-M   'P 1'
_cell_length_a   10.49671733
_cell_length_b   10.49671733
_cell_length_c   10.49671733
_cell_angle_alpha   115.75264615
_cell_angle_beta   115.75264615
_cell_angle_gamma   97.52890172
_symmetry_Int_Tables_number   1
_chemical_formula_structural   ReTeSeCl4
_chemical_formula_sum   'Re4 Te4 Se4 Cl16'
_cell_volume   862.22681901
_cell_formula_units_Z   4
loop_
 _symmetry_equiv_pos_site_id
 _symmetry_equiv_pos_as_xyz
  1  'x, y, z'
loop_
 _atom_site_type_symbol
 _atom_site_label
 _atom_site_symmetry_multiplicity
 _atom_site_fract_x
 _atom_site_fract_y
 _atom_site_fract_z
 _atom_site_occupancy
  Re  Re0  1  0.558106  0.209069  0.412847  1
  Re  Re1  1  0.796222  0.145259  0.587153  1
  Re  Re2  1  0.854741  0.441894  0.650963  1
  Re  Re3  1  0.790931  0.203778  0.349037  1
  Te  Te4  1  0.331914  0.321969  0.414965  1
  Te  Te5  1  0.907004  0.916949  0.585035  1
  Te  Te6  1  0.083051  0.668086  0.990054  1
  Te  Te7  1  0.678031  0.092996  0.009946  1
  Se  Se8  1  0.698304  0.326511  0.721110  1
  Se  Se9  1  0.605402  0.977194  0.278890  1
  Se  Se10  1  0.022806  0.301696  0.628208  1
  Se  Se11  1  0.673489  0.394598  0.371792  1
  Cl  Cl12  1  0.396182  0.459384  0.700553  1
  Cl  Cl13  1  0.758831  0.695629  0.299447  1
  Cl  Cl14  1  0.304371  0.603818  0.063203  1
  Cl  Cl15  1  0.540616  0.241169  0.936797  1
  Cl  Cl16  1  0.353125  0.055103  0.410587  1
  Cl  Cl17  1  0.644516  0.942539  0.589413  1
  Cl  Cl18  1  0.057461  0.646875  0.701977  1
  Cl  Cl19  1  0.944897  0.355484  0.298023  1
  Cl  Cl20  1  0.329810  0.111448  0.127729  1
  Cl  Cl21  1  0.983719  0.202082  0.872271  1
  Cl  Cl22  1  0.797918  0.670190  0.781637  1
  Cl  Cl23  1  0.888552  0.016281  0.218363  1
  Cl  Cl24  1  0.373580  0.539582  0.396462  1
  Cl  Cl25  1  0.143121  0.977118  0.603538  1
  Cl  Cl26  1  0.022882  0.626420  0.166003  1
  Cl  Cl27  1  0.460418  0.856879  0.833997  1
