# generated using pymatgen
data_Li5Co2O2F5
_symmetry_space_group_name_H-M   'P 1'
_cell_length_a   14.62900403
_cell_length_b   14.62900403
_cell_length_c   14.62900403
_cell_angle_alpha   168.43291357
_cell_angle_beta   168.43291357
_cell_angle_gamma   16.38635349
_symmetry_Int_Tables_number   1
_chemical_formula_structural   Li5Co2O2F5
_chemical_formula_sum   'Li5 Co2 O2 F5'
_cell_volume   125.86816394
_cell_formula_units_Z   1
loop_
 _symmetry_equiv_pos_site_id
 _symmetry_equiv_pos_as_xyz
  1  'x, y, z'
loop_
 _atom_site_type_symbol
 _atom_site_label
 _atom_site_symmetry_multiplicity
 _atom_site_fract_x
 _atom_site_fract_y
 _atom_site_fract_z
 _atom_site_occupancy
  Li  Li0  1  0.638790  0.638790  0.000000  1
  Li  Li1  1  0.361210  0.361210  0.000000  1
  Li  Li2  1  0.931225  0.931225  0.000000  1
  Li  Li3  1  0.500000  0.500000  0.000000  1
  Li  Li4  1  0.068775  0.068775  0.000000  1
  Co  Co5  1  0.218685  0.218685  0.000000  1
  Co  Co6  1  0.781315  0.781315  0.000000  1
  O  O7  1  0.710251  0.710251  0.000000  1
  O  O8  1  0.289749  0.289749  0.000000  1
  F  F9  1  0.138422  0.138422  0.000000  1
  F  F10  1  0.861578  0.861578  0.000000  1
  F  F11  1  0.431066  0.431066  0.000000  1
  F  F12  1  0.000000  0.000000  0.000000  1
  F  F13  1  0.568934  0.568934  0.000000  1
