# generated using pymatgen
data_Ca2SnS4
_symmetry_space_group_name_H-M   'P 1'
_cell_length_a   7.53482695
_cell_length_b   7.53482695
_cell_length_c   7.53482695
_cell_angle_alpha   133.52363118
_cell_angle_beta   133.52363118
_cell_angle_gamma   67.83300478
_symmetry_Int_Tables_number   1
_chemical_formula_structural   Ca2SnS4
_chemical_formula_sum   'Ca2 Sn1 S4'
_cell_volume   221.05177305
_cell_formula_units_Z   1
loop_
 _symmetry_equiv_pos_site_id
 _symmetry_equiv_pos_as_xyz
  1  'x, y, z'
loop_
 _atom_site_type_symbol
 _atom_site_label
 _atom_site_symmetry_multiplicity
 _atom_site_fract_x
 _atom_site_fract_y
 _atom_site_fract_z
 _atom_site_occupancy
  Ca  Ca0  1  0.250000  0.750000  0.500000  1
  Ca  Ca1  1  0.500000  0.500000  0.000000  1
  Sn  Sn2  1  0.750000  0.250000  0.500000  1
  S  S3  1  0.393894  0.346246  0.479706  1
  S  S4  1  0.866540  0.914188  0.520294  1
  S  S5  1  0.653755  0.133460  0.047649  1
  S  S6  1  0.085812  0.606106  0.952351  1
