# generated using pymatgen
data_GaBi25O39
_symmetry_space_group_name_H-M   'P 1'
_cell_length_a   8.94251237
_cell_length_b   8.94511512
_cell_length_c   14.56740045
_cell_angle_alpha   90.19178307
_cell_angle_beta   90.08603696
_cell_angle_gamma   109.55918241
_symmetry_Int_Tables_number   1
_chemical_formula_structural   GaBi25O39
_chemical_formula_sum   'Ga1 Bi25 O39'
_cell_volume   1098.02154857
_cell_formula_units_Z   1
loop_
 _symmetry_equiv_pos_site_id
 _symmetry_equiv_pos_as_xyz
  1  'x, y, z'
loop_
 _atom_site_type_symbol
 _atom_site_label
 _atom_site_symmetry_multiplicity
 _atom_site_fract_x
 _atom_site_fract_y
 _atom_site_fract_z
 _atom_site_occupancy
  Ga  Ga0  1  0.500319  0.501739  0.500125  1
  Bi  Bi1  1  0.565930  0.767681  0.917500  1
  Bi  Bi2  1  0.234508  0.388827  0.908036  1
  Bi  Bi3  1  0.172435  0.492465  0.647118  1
  Bi  Bi4  1  0.528937  0.829343  0.659599  1
  Bi  Bi5  1  0.332409  0.024675  0.830304  1
  Bi  Bi6  1  0.992013  0.640484  0.841595  1
  Bi  Bi7  1  0.734217  0.234806  0.929176  1
  Bi  Bi8  1  0.579351  0.444629  0.744199  1
  Bi  Bi9  1  0.242176  0.735571  0.430140  1
  Bi  Bi10  1  0.082659  0.942353  0.249034  1
  Bi  Bi11  1  0.900462  0.730514  0.594270  1
  Bi  Bi12  1  0.089854  0.275979  0.416488  1
  Bi  Bi13  1  0.278704  0.088330  0.579651  1
  Bi  Bi14  1  0.733394  0.900709  0.406522  1
  Bi  Bi15  1  0.936732  0.090346  0.739738  1
  Bi  Bi16  1  0.443724  0.579384  0.257180  1
  Bi  Bi17  1  0.231422  0.735678  0.076263  1
  Bi  Bi18  1  0.732430  0.252602  0.565798  1
  Bi  Bi19  1  0.653392  0.986671  0.155987  1
  Bi  Bi20  1  0.022685  0.326827  0.167080  1
  Bi  Bi21  1  0.486311  0.161555  0.347444  1
  Bi  Bi22  1  0.830192  0.524683  0.337472  1
  Bi  Bi23  1  0.981979  0.979307  0.984762  1
  Bi  Bi24  1  0.393460  0.232657  0.096344  1
  Bi  Bi25  1  0.772821  0.580939  0.085876  1
  O  O26  1  0.998013  0.629927  0.999374  1
  O  O27  1  0.316470  0.702839  0.942750  1
  O  O28  1  0.043584  0.928506  0.692038  1
  O  O29  1  0.005727  0.222601  0.001221  1
  O  O30  1  0.060078  0.434459  0.823446  1
  O  O31  1  0.570198  0.926677  0.810570  1
  O  O32  1  0.222924  0.002843  0.004993  1
  O  O33  1  0.204870  0.821227  0.560836  1
  O  O34  1  0.426519  0.547568  0.810929  1
  O  O35  1  0.183750  0.184394  0.812969  1
  O  O36  1  0.496958  0.238401  0.880680  1
  O  O37  1  0.751489  0.514477  0.866693  1
  O  O38  1  0.020070  0.253508  0.629477  1
  O  O39  1  0.743811  0.005268  0.620427  1
  O  O40  1  0.117434  0.500454  0.500438  1
  O  O41  1  0.629667  0.998868  0.999482  1
  O  O42  1  0.691794  0.692259  0.690903  1
  O  O43  1  0.502159  0.714120  0.502885  1
  O  O44  1  0.391121  0.397600  0.606376  1
  O  O45  1  0.429711  0.077562  0.689589  1
  O  O46  1  0.559971  0.941269  0.321531  1
  O  O47  1  0.944724  0.559425  0.680369  1
  O  O48  1  0.075088  0.429732  0.310452  1
  O  O49  1  0.396605  0.395393  0.393698  1
  O  O50  1  0.711198  0.496581  0.503169  1
  O  O51  1  0.692360  0.691245  0.310731  1
  O  O52  1  0.501717  0.118408  0.500518  1
  O  O53  1  0.000789  0.737384  0.383577  1
  O  O54  1  0.251165  0.013721  0.372564  1
  O  O55  1  0.234257  0.495980  0.118331  1
  O  O56  1  0.506592  0.750562  0.131277  1
  O  O57  1  0.191296  0.191291  0.194051  1
  O  O58  1  0.822225  0.205886  0.439821  1
  O  O59  1  0.549074  0.428783  0.191703  1
  O  O60  1  0.893687  0.894616  0.115719  1
  O  O61  1  0.928753  0.567488  0.191501  1
  O  O62  1  0.437340  0.059859  0.179910  1
  O  O63  1  0.701360  0.319642  0.059786  1
  O  O64  1  0.931291  0.048776  0.312267  1
