# generated using pymatgen
data_FeH4Br3N
_symmetry_space_group_name_H-M   'P 1'
_cell_length_a   7.49331772
_cell_length_b   7.49331772
_cell_length_c   6.14191590
_cell_angle_alpha   90.00000000
_cell_angle_beta   90.00000000
_cell_angle_gamma   120.00000000
_symmetry_Int_Tables_number   1
_chemical_formula_structural   FeH4Br3N
_chemical_formula_sum   'Fe2 H8 Br6 N2'
_cell_volume   298.66394108
_cell_formula_units_Z   2
loop_
 _symmetry_equiv_pos_site_id
 _symmetry_equiv_pos_as_xyz
  1  'x, y, z'
loop_
 _atom_site_type_symbol
 _atom_site_label
 _atom_site_symmetry_multiplicity
 _atom_site_fract_x
 _atom_site_fract_y
 _atom_site_fract_z
 _atom_site_occupancy
  Fe  Fe0  1  0.000000  0.000000  0.010566  1
  Fe  Fe1  1  0.000000  0.000000  0.510566  1
  H  H2  1  0.333333  0.666667  0.069336  1
  H  H3  1  0.333919  0.534341  0.289132  1
  H  H4  1  0.200422  0.666081  0.289132  1
  H  H5  1  0.465659  0.799578  0.289132  1
  H  H6  1  0.666667  0.333333  0.569336  1
  H  H7  1  0.666081  0.465659  0.789132  1
  H  H8  1  0.799578  0.333919  0.789132  1
  H  H9  1  0.534341  0.200422  0.789132  1
  Br  Br10  1  0.796478  0.120691  0.262744  1
  Br  Br11  1  0.324213  0.203522  0.262744  1
  Br  Br12  1  0.879309  0.675787  0.262744  1
  Br  Br13  1  0.203522  0.879309  0.762744  1
  Br  Br14  1  0.675787  0.796478  0.762744  1
  Br  Br15  1  0.120691  0.324213  0.762744  1
  N  N16  1  0.333333  0.666667  0.237983  1
  N  N17  1  0.666667  0.333333  0.737983  1
