# generated using pymatgen
data_Li6Co2C4SO16
_symmetry_space_group_name_H-M   'P 1'
_cell_length_a   9.37427464
_cell_length_b   9.37427464
_cell_length_c   9.37427464
_cell_angle_alpha   60.00000000
_cell_angle_beta   60.00000000
_cell_angle_gamma   60.00000000
_symmetry_Int_Tables_number   1
_chemical_formula_structural   Li6Co2C4SO16
_chemical_formula_sum   'Li12 Co4 C8 S2 O32'
_cell_volume   582.50280564
_cell_formula_units_Z   2
loop_
 _symmetry_equiv_pos_site_id
 _symmetry_equiv_pos_as_xyz
  1  'x, y, z'
loop_
 _atom_site_type_symbol
 _atom_site_label
 _atom_site_symmetry_multiplicity
 _atom_site_fract_x
 _atom_site_fract_y
 _atom_site_fract_z
 _atom_site_occupancy
  Li  Li0  1  0.468410  0.468410  0.031590  1
  Li  Li1  1  0.031590  0.468410  0.031590  1
  Li  Li2  1  0.468410  0.031590  0.031590  1
  Li  Li3  1  0.031590  0.468410  0.468410  1
  Li  Li4  1  0.218410  0.218410  0.781590  1
  Li  Li5  1  0.781590  0.218410  0.781590  1
  Li  Li6  1  0.468410  0.031590  0.468410  1
  Li  Li7  1  0.031590  0.031590  0.468410  1
  Li  Li8  1  0.781590  0.218410  0.218410  1
  Li  Li9  1  0.218410  0.781590  0.781590  1
  Li  Li10  1  0.781590  0.781590  0.218410  1
  Li  Li11  1  0.218410  0.781590  0.218410  1
  Co  Co12  1  0.625000  0.625000  0.125000  1
  Co  Co13  1  0.625000  0.625000  0.625000  1
  Co  Co14  1  0.125000  0.625000  0.625000  1
  Co  Co15  1  0.625000  0.125000  0.625000  1
  C  C16  1  0.849113  0.452660  0.849113  1
  C  C17  1  0.849113  0.849113  0.849113  1
  C  C18  1  0.452660  0.849113  0.849113  1
  C  C19  1  0.849113  0.849113  0.452660  1
  C  C20  1  0.400887  0.400887  0.797340  1
  C  C21  1  0.797340  0.400887  0.400887  1
  C  C22  1  0.400887  0.400887  0.400887  1
  C  C23  1  0.400887  0.797340  0.400887  1
  S  S24  1  1.000000  0.000000  1.000000  1
  S  S25  1  0.250000  0.250000  0.250000  1
  O  O26  1  0.065105  0.804685  0.065105  1
  O  O27  1  0.065105  0.065105  0.065105  1
  O  O28  1  0.804685  0.065105  0.065105  1
  O  O29  1  0.065105  0.065105  0.804685  1
  O  O30  1  0.716448  0.451656  0.992693  1
  O  O31  1  0.992693  0.451656  0.839203  1
  O  O32  1  0.839203  0.716448  0.992693  1
  O  O33  1  0.839203  0.451656  0.716448  1
  O  O34  1  0.451656  0.839203  0.992693  1
  O  O35  1  0.451656  0.716448  0.839203  1
  O  O36  1  0.992693  0.839203  0.716448  1
  O  O37  1  0.716448  0.992693  0.839203  1
  O  O38  1  0.992693  0.716448  0.451656  1
  O  O39  1  0.451656  0.992693  0.716448  1
  O  O40  1  0.716448  0.839203  0.451656  1
  O  O41  1  0.410797  0.257307  0.798344  1
  O  O42  1  0.839203  0.992693  0.451656  1
  O  O43  1  0.533552  0.410797  0.798344  1
  O  O44  1  0.798344  0.257307  0.533552  1
  O  O45  1  0.257307  0.533552  0.798344  1
  O  O46  1  0.533552  0.257307  0.410797  1
  O  O47  1  0.257307  0.410797  0.533552  1
  O  O48  1  0.798344  0.533552  0.410797  1
  O  O49  1  0.798344  0.410797  0.257307  1
  O  O50  1  0.410797  0.798344  0.533552  1
  O  O51  1  0.410797  0.533552  0.257307  1
  O  O52  1  0.257307  0.798344  0.410797  1
  O  O53  1  0.533552  0.798344  0.257307  1
  O  O54  1  0.184895  0.184895  0.445315  1
  O  O55  1  0.445315  0.184895  0.184895  1
  O  O56  1  0.184895  0.184895  0.184895  1
  O  O57  1  0.184895  0.445315  0.184895  1
