# generated using pymatgen
data_TeH14C3S3(N3F2)2
_symmetry_space_group_name_H-M   'P 1'
_cell_length_a   6.23826097
_cell_length_b   20.94692274
_cell_length_c   11.53130581
_cell_angle_alpha   90.00000000
_cell_angle_beta   95.78674426
_cell_angle_gamma   90.00000000
_symmetry_Int_Tables_number   1
_chemical_formula_structural   TeH14C3S3(N3F2)2
_chemical_formula_sum   'Te4 H56 C12 S12 N24 F16'
_cell_volume   1499.14438853
_cell_formula_units_Z   4
loop_
 _symmetry_equiv_pos_site_id
 _symmetry_equiv_pos_as_xyz
  1  'x, y, z'
loop_
 _atom_site_type_symbol
 _atom_site_label
 _atom_site_symmetry_multiplicity
 _atom_site_fract_x
 _atom_site_fract_y
 _atom_site_fract_z
 _atom_site_occupancy
  Te  Te0  1  0.125989  0.093286  0.956202  1
  Te  Te1  1  0.125989  0.406714  0.456202  1
  Te  Te2  1  0.874011  0.593286  0.543798  1
  Te  Te3  1  0.874011  0.906714  0.043798  1
  H  H4  1  0.034066  0.976449  0.613047  1
  H  H5  1  0.027109  0.851154  0.505309  1
  H  H6  1  0.034066  0.523551  0.113047  1
  H  H7  1  0.027109  0.648846  0.005309  1
  H  H8  1  0.237215  0.496578  0.930934  1
  H  H9  1  0.192713  0.646745  0.716245  1
  H  H10  1  0.194874  0.301266  0.788332  1
  H  H11  1  0.242671  0.131560  0.541178  1
  H  H12  1  0.103017  0.877229  0.729588  1
  H  H13  1  0.278684  0.650391  0.866222  1
  H  H14  1  0.237215  0.003422  0.430934  1
  H  H15  1  0.192713  0.853255  0.216245  1
  H  H16  1  0.194874  0.198734  0.288332  1
  H  H17  1  0.303212  0.811359  0.822919  1
  H  H18  1  0.242671  0.368440  0.041178  1
  H  H19  1  0.103017  0.622771  0.229588  1
  H  H20  1  0.278684  0.849609  0.366222  1
  H  H21  1  0.398631  0.836617  0.982874  1
  H  H22  1  0.303212  0.688641  0.322919  1
  H  H23  1  0.374073  0.476242  0.636324  1
  H  H24  1  0.398631  0.663383  0.482874  1
  H  H25  1  0.467567  0.311771  0.831967  1
  H  H26  1  0.401103  0.917170  0.542187  1
  H  H27  1  0.374073  0.023758  0.136324  1
  H  H28  1  0.484508  0.489451  0.781476  1
  H  H29  1  0.467567  0.188229  0.331967  1
  H  H30  1  0.515492  0.989451  0.718524  1
  H  H31  1  0.598897  0.417170  0.957813  1
  H  H32  1  0.401103  0.582830  0.042187  1
  H  H33  1  0.484508  0.010549  0.281476  1
  H  H34  1  0.532433  0.811771  0.668033  1
  H  H35  1  0.515492  0.510549  0.218524  1
  H  H36  1  0.625927  0.976242  0.863676  1
  H  H37  1  0.598897  0.082830  0.457813  1
  H  H38  1  0.532433  0.688229  0.168033  1
  H  H39  1  0.601369  0.336617  0.517126  1
  H  H40  1  0.625927  0.523758  0.363676  1
  H  H41  1  0.696788  0.311359  0.677081  1
  H  H42  1  0.601369  0.163383  0.017126  1
  H  H43  1  0.721316  0.150391  0.633778  1
  H  H44  1  0.896983  0.377229  0.770412  1
  H  H45  1  0.757329  0.631560  0.958822  1
  H  H46  1  0.696788  0.188641  0.177081  1
  H  H47  1  0.805126  0.801266  0.711668  1
  H  H48  1  0.807287  0.146745  0.783755  1
  H  H49  1  0.762785  0.996578  0.569066  1
  H  H50  1  0.721316  0.349609  0.133778  1
  H  H51  1  0.896983  0.122771  0.270412  1
  H  H52  1  0.757329  0.868440  0.458822  1
  H  H53  1  0.805126  0.698734  0.211668  1
  H  H54  1  0.807287  0.353255  0.283755  1
  H  H55  1  0.762785  0.503422  0.069066  1
  H  H56  1  0.972891  0.351154  0.994691  1
  H  H57  1  0.965934  0.476449  0.886953  1
  H  H58  1  0.972891  0.148846  0.494691  1
  H  H59  1  0.965934  0.023551  0.386953  1
  C  C60  1  0.045634  0.138787  0.672321  1
  C  C61  1  0.045634  0.361213  0.172321  1
  C  C62  1  0.157694  0.474115  0.755996  1
  C  C63  1  0.157694  0.025885  0.255996  1
  C  C64  1  0.381547  0.308248  0.653043  1
  C  C65  1  0.381547  0.191752  0.153043  1
  C  C66  1  0.618453  0.808248  0.846957  1
  C  C67  1  0.618453  0.691752  0.346957  1
  C  C68  1  0.842306  0.974115  0.744004  1
  C  C69  1  0.842306  0.525885  0.244004  1
  C  C70  1  0.954366  0.638787  0.827679  1
  C  C71  1  0.954366  0.861213  0.327679  1
  S  S72  1  0.061554  0.950938  0.840792  1
  S  S73  1  0.061554  0.549062  0.340792  1
  S  S74  1  0.141645  0.302697  0.553699  1
  S  S75  1  0.141645  0.197303  0.053699  1
  S  S76  1  0.273342  0.129915  0.772715  1
  S  S77  1  0.273342  0.370085  0.272715  1
  S  S78  1  0.726658  0.629915  0.727285  1
  S  S79  1  0.726658  0.870085  0.227285  1
  S  S80  1  0.858355  0.802697  0.946301  1
  S  S81  1  0.858355  0.697303  0.446301  1
  S  S82  1  0.938446  0.450938  0.659208  1
  S  S83  1  0.938446  0.049062  0.159208  1
  N  N84  1  0.121346  0.482067  0.866749  1
  N  N85  1  0.087493  0.137580  0.561211  1
  N  N86  1  0.154397  0.648769  0.800628  1
  N  N87  1  0.121346  0.017933  0.366749  1
  N  N88  1  0.087493  0.362420  0.061211  1
  N  N89  1  0.154397  0.851231  0.300628  1
  N  N90  1  0.347825  0.304310  0.766061  1
  N  N91  1  0.352732  0.482682  0.722043  1
  N  N92  1  0.430282  0.812772  0.886273  1
  N  N93  1  0.347825  0.195690  0.266061  1
  N  N94  1  0.352732  0.017318  0.222043  1
  N  N95  1  0.430282  0.687228  0.386273  1
  N  N96  1  0.569718  0.312772  0.613727  1
  N  N97  1  0.647268  0.982682  0.777957  1
  N  N98  1  0.652175  0.804310  0.733939  1
  N  N99  1  0.569718  0.187228  0.113727  1
  N  N100  1  0.647268  0.517318  0.277957  1
  N  N101  1  0.652175  0.695690  0.233939  1
  N  N102  1  0.845603  0.148769  0.699372  1
  N  N103  1  0.912507  0.637580  0.938789  1
  N  N104  1  0.878654  0.982067  0.633251  1
  N  N105  1  0.845603  0.351231  0.199372  1
  N  N106  1  0.912507  0.862420  0.438789  1
  N  N107  1  0.878654  0.517933  0.133251  1
  F  F108  1  0.103515  0.839396  0.677846  1
  F  F109  1  0.103515  0.660604  0.177846  1
  F  F110  1  0.363354  0.636828  0.568532  1
  F  F111  1  0.326425  0.965211  0.575917  1
  F  F112  1  0.363354  0.863172  0.068532  1
  F  F113  1  0.326425  0.534789  0.075917  1
  F  F114  1  0.531257  0.371614  0.990944  1
  F  F115  1  0.468743  0.871614  0.509056  1
  F  F116  1  0.531257  0.128386  0.490944  1
  F  F117  1  0.468743  0.628386  0.009056  1
  F  F118  1  0.673575  0.465211  0.924083  1
  F  F119  1  0.636646  0.136828  0.931468  1
  F  F120  1  0.673575  0.034789  0.424083  1
  F  F121  1  0.636646  0.363172  0.431468  1
  F  F122  1  0.896485  0.339396  0.822154  1
  F  F123  1  0.896485  0.160604  0.322154  1
