# generated using pymatgen
data_Li3Mn3(PO4)4
_symmetry_space_group_name_H-M   'P 1'
_cell_length_a   8.62532999
_cell_length_b   4.99588651
_cell_length_c   16.02838602
_cell_angle_alpha   90.00000000
_cell_angle_beta   116.21044976
_cell_angle_gamma   90.00000000
_symmetry_Int_Tables_number   1
_chemical_formula_structural   Li3Mn3(PO4)4
_chemical_formula_sum   'Li6 Mn6 P8 O32'
_cell_volume   619.66449186
_cell_formula_units_Z   2
loop_
 _symmetry_equiv_pos_site_id
 _symmetry_equiv_pos_as_xyz
  1  'x, y, z'
loop_
 _atom_site_type_symbol
 _atom_site_label
 _atom_site_symmetry_multiplicity
 _atom_site_fract_x
 _atom_site_fract_y
 _atom_site_fract_z
 _atom_site_occupancy
  Li  Li0  1  0.500000  0.500000  0.000000  1
  Li  Li1  1  0.806629  0.559277  0.255648  1
  Li  Li2  1  0.193371  0.059277  0.244352  1
  Li  Li3  1  0.806629  0.940723  0.755648  1
  Li  Li4  1  0.500000  0.000000  0.500000  1
  Li  Li5  1  0.193371  0.440723  0.744352  1
  Mn  Mn6  1  0.310090  0.510199  0.123847  1
  Mn  Mn7  1  0.000000  0.000000  0.000000  1
  Mn  Mn8  1  0.689910  0.010199  0.376153  1
  Mn  Mn9  1  0.000000  0.500000  0.500000  1
  Mn  Mn10  1  0.310090  0.989801  0.623847  1
  Mn  Mn11  1  0.689910  0.489801  0.876153  1
  P  P12  1  0.530420  0.996632  0.151033  1
  P  P13  1  0.469580  0.496632  0.348967  1
  P  P14  1  0.924034  0.497235  0.096408  1
  P  P15  1  0.075966  0.997235  0.403592  1
  P  P16  1  0.924034  0.002765  0.596408  1
  P  P17  1  0.075966  0.502765  0.903592  1
  P  P18  1  0.530420  0.503368  0.651033  1
  P  P19  1  0.469580  0.003368  0.848967  1
  O  O20  1  0.345687  0.908674  0.140608  1
  O  O21  1  0.333637  0.431768  0.244658  1
  O  O22  1  0.589104  0.839582  0.090526  1
  O  O23  1  0.520943  0.306042  0.137743  1
  O  O24  1  0.750844  0.449104  0.008636  1
  O  O25  1  0.479057  0.806042  0.362257  1
  O  O26  1  0.410896  0.339582  0.409474  1
  O  O27  1  0.666363  0.931768  0.255342  1
  O  O28  1  0.994486  0.789317  0.099198  1
  O  O29  1  0.654313  0.408674  0.359392  1
  O  O30  1  0.064655  0.312947  0.081501  1
  O  O31  1  0.919298  0.421726  0.185388  1
  O  O32  1  0.750844  0.050896  0.508636  1
  O  O33  1  0.080702  0.921726  0.314612  1
  O  O34  1  0.935345  0.812947  0.418499  1
  O  O35  1  0.005514  0.289317  0.400802  1
  O  O36  1  0.994486  0.710683  0.599198  1
  O  O37  1  0.064655  0.187053  0.581501  1
  O  O38  1  0.919298  0.078274  0.685388  1
  O  O39  1  0.249156  0.949104  0.491364  1
  O  O40  1  0.080702  0.578274  0.814612  1
  O  O41  1  0.935345  0.687053  0.918499  1
  O  O42  1  0.345687  0.591326  0.640608  1
  O  O43  1  0.005514  0.210683  0.900802  1
  O  O44  1  0.333637  0.068232  0.744658  1
  O  O45  1  0.589104  0.660418  0.590526  1
  O  O46  1  0.520943  0.193958  0.637743  1
  O  O47  1  0.249156  0.550896  0.991364  1
  O  O48  1  0.479057  0.693958  0.862257  1
  O  O49  1  0.410896  0.160418  0.909474  1
  O  O50  1  0.666363  0.568232  0.755342  1
  O  O51  1  0.654313  0.091326  0.859392  1
