# generated using pymatgen
data_Tl2CoP4(HO2)8
_symmetry_space_group_name_H-M   'P 1'
_cell_length_a   7.02656048
_cell_length_b   7.35070558
_cell_length_c   7.76334191
_cell_angle_alpha   98.38167211
_cell_angle_beta   110.79303407
_cell_angle_gamma   87.08628568
_symmetry_Int_Tables_number   1
_chemical_formula_structural   Tl2CoP4(HO2)8
_chemical_formula_sum   'Tl2 Co1 P4 H8 O16'
_cell_volume   370.85774996
_cell_formula_units_Z   1
loop_
 _symmetry_equiv_pos_site_id
 _symmetry_equiv_pos_as_xyz
  1  'x, y, z'
loop_
 _atom_site_type_symbol
 _atom_site_label
 _atom_site_symmetry_multiplicity
 _atom_site_fract_x
 _atom_site_fract_y
 _atom_site_fract_z
 _atom_site_occupancy
  Tl  Tl0  1  0.921641  0.290086  0.801179  1
  Tl  Tl1  1  0.078359  0.709914  0.198821  1
  Co  Co2  1  0.500000  0.500000  0.000000  1
  P  P3  1  0.637393  0.735205  0.720442  1
  P  P4  1  0.362607  0.264795  0.279558  1
  P  P5  1  0.224401  0.792512  0.732102  1
  P  P6  1  0.775599  0.207488  0.267898  1
  H  H7  1  0.746440  0.969871  0.943236  1
  H  H8  1  0.253560  0.030129  0.056764  1
  H  H9  1  0.404522  0.290459  0.669108  1
  H  H10  1  0.595478  0.709541  0.330892  1
  H  H11  1  0.900170  0.733040  0.557328  1
  H  H12  1  0.099830  0.266960  0.442672  1
  H  H13  1  0.391757  0.158087  0.813773  1
  H  H14  1  0.608243  0.841913  0.186227  1
  O  O15  1  0.459014  0.268663  0.801516  1
  O  O16  1  0.540986  0.731337  0.198484  1
  O  O17  1  0.675130  0.610564  0.868418  1
  O  O18  1  0.324870  0.389436  0.131582  1
  O  O19  1  0.749798  0.925584  0.812571  1
  O  O20  1  0.250202  0.074416  0.187429  1
  O  O21  1  0.700440  0.663614  0.555189  1
  O  O22  1  0.299560  0.336386  0.444811  1
  O  O23  1  0.396384  0.780718  0.633300  1
  O  O24  1  0.603616  0.219282  0.366700  1
  O  O25  1  0.234713  0.625448  0.828418  1
  O  O26  1  0.765287  0.374552  0.171582  1
  O  O27  1  0.029915  0.786138  0.549145  1
  O  O28  1  0.970085  0.213862  0.450855  1
  O  O29  1  0.250087  0.979496  0.852112  1
  O  O30  1  0.749913  0.020504  0.147888  1
