# generated using pymatgen
data_Ni6OF11
_symmetry_space_group_name_H-M   'P 1'
_cell_length_a   5.63576087
_cell_length_b   5.63576087
_cell_length_c   7.30872933
_cell_angle_alpha   72.74159895
_cell_angle_beta   107.25840105
_cell_angle_gamma   107.29036713
_symmetry_Int_Tables_number   1
_chemical_formula_structural   Ni6OF11
_chemical_formula_sum   'Ni6 O1 F11'
_cell_volume   206.06062953
_cell_formula_units_Z   1
loop_
 _symmetry_equiv_pos_site_id
 _symmetry_equiv_pos_as_xyz
  1  'x, y, z'
loop_
 _atom_site_type_symbol
 _atom_site_label
 _atom_site_symmetry_multiplicity
 _atom_site_fract_x
 _atom_site_fract_y
 _atom_site_fract_z
 _atom_site_occupancy
  Ni  Ni0  1  0.333261  0.666739  0.833440  1
  Ni  Ni1  1  0.665182  0.334818  0.660491  1
  Ni  Ni2  1  0.339907  0.660093  0.331869  1
  Ni  Ni3  1  0.000975  0.999025  0.500107  1
  Ni  Ni4  1  0.663098  0.336902  0.171543  1
  Ni  Ni5  1  0.998264  0.001736  0.000603  1
  O  O6  1  0.566198  0.433802  0.370363  1
  F  F7  1  0.969845  0.637820  0.667015  1
  F  F8  1  0.638729  0.969656  0.333023  1
  F  F9  1  0.105674  0.894326  0.299131  1
  F  F10  1  0.763888  0.236112  0.963430  1
  F  F11  1  0.433580  0.566420  0.631344  1
  F  F12  1  0.898835  0.101165  0.702574  1
  F  F13  1  0.231373  0.768627  0.034996  1
  F  F14  1  0.696437  0.697770  0.000017  1
  F  F15  1  0.362180  0.030155  0.667015  1
  F  F16  1  0.030344  0.361271  0.333023  1
  F  F17  1  0.302230  0.303563  0.000017  1
