# generated using pymatgen
data_Li5Mn6(BO3)6
_symmetry_space_group_name_H-M   'P 1'
_cell_length_a   5.26948433
_cell_length_b   5.94490390
_cell_length_c   12.37565678
_cell_angle_alpha   91.41497347
_cell_angle_beta   101.23596828
_cell_angle_gamma   90.08883602
_symmetry_Int_Tables_number   1
_chemical_formula_structural   Li5Mn6(BO3)6
_chemical_formula_sum   'Li5 Mn6 B6 O18'
_cell_volume   380.13223848
_cell_formula_units_Z   1
loop_
 _symmetry_equiv_pos_site_id
 _symmetry_equiv_pos_as_xyz
  1  'x, y, z'
loop_
 _atom_site_type_symbol
 _atom_site_label
 _atom_site_symmetry_multiplicity
 _atom_site_fract_x
 _atom_site_fract_y
 _atom_site_fract_z
 _atom_site_occupancy
  Li  Li0  1  0.896587  0.195747  0.478696  1
  Li  Li1  1  0.773178  0.469132  0.853448  1
  Li  Li2  1  0.234929  0.514818  0.149090  1
  Li  Li3  1  0.106323  0.799826  0.515974  1
  Li  Li4  1  0.559569  0.862946  0.814275  1
  Mn  Mn5  1  0.030288  0.041670  0.720139  1
  Mn  Mn6  1  0.301724  0.286516  0.952510  1
  Mn  Mn7  1  0.375133  0.362138  0.380876  1
  Mn  Mn8  1  0.637844  0.622834  0.613649  1
  Mn  Mn9  1  0.695032  0.707566  0.053282  1
  Mn  Mn10  1  0.960848  0.971581  0.273065  1
  B  B11  1  0.470679  0.133622  0.602413  1
  B  B12  1  0.855968  0.198093  0.060234  1
  B  B13  1  0.809334  0.478526  0.270869  1
  B  B14  1  0.196743  0.530421  0.730922  1
  B  B15  1  0.138562  0.798995  0.936746  1
  B  B16  1  0.525632  0.863309  0.399908  1
  O  O17  1  0.354965  0.015955  0.341397  1
  O  O18  1  0.746791  0.037586  0.117065  1
  O  O19  1  0.204534  0.116666  0.585221  1
  O  O20  1  0.117712  0.222414  0.077452  1
  O  O21  1  0.589593  0.283290  0.541483  1
  O  O22  1  0.964379  0.330526  0.341481  1
  O  O23  1  0.695502  0.343221  0.988728  1
  O  O24  1  0.079878  0.381432  0.792748  1
  O  O25  1  0.545486  0.480617  0.259498  1
  O  O26  1  0.462670  0.548116  0.747718  1
  O  O27  1  0.929469  0.624558  0.208474  1
  O  O28  1  0.295555  0.657937  0.009303  1
  O  O29  1  0.040324  0.667754  0.655199  1
  O  O30  1  0.414180  0.694806  0.455505  1
  O  O31  1  0.872483  0.782233  0.918083  1
  O  O32  1  0.789871  0.885246  0.412888  1
  O  O33  1  0.255887  0.952287  0.876465  1
  O  O34  1  0.626768  0.994554  0.676773  1
