# generated using pymatgen
data_CaSbPt
_symmetry_space_group_name_H-M   'P 1'
_cell_length_a   4.64081112
_cell_length_b   7.40020050
_cell_length_c   7.96904118
_cell_angle_alpha   90.00000000
_cell_angle_beta   90.00000000
_cell_angle_gamma   90.00000000
_symmetry_Int_Tables_number   1
_chemical_formula_structural   CaSbPt
_chemical_formula_sum   'Ca4 Sb4 Pt4'
_cell_volume   273.68024549
_cell_formula_units_Z   4
loop_
 _symmetry_equiv_pos_site_id
 _symmetry_equiv_pos_as_xyz
  1  'x, y, z'
loop_
 _atom_site_type_symbol
 _atom_site_label
 _atom_site_symmetry_multiplicity
 _atom_site_fract_x
 _atom_site_fract_y
 _atom_site_fract_z
 _atom_site_occupancy
  Ca  Ca0  1  0.750000  0.992122  0.698084  1
  Ca  Ca1  1  0.250000  0.007878  0.301916  1
  Ca  Ca2  1  0.750000  0.492122  0.801916  1
  Ca  Ca3  1  0.250000  0.507878  0.198084  1
  Sb  Sb4  1  0.750000  0.313933  0.409451  1
  Sb  Sb5  1  0.250000  0.186067  0.909451  1
  Sb  Sb6  1  0.250000  0.686067  0.590549  1
  Sb  Sb7  1  0.750000  0.813933  0.090549  1
  Pt  Pt8  1  0.250000  0.802344  0.915168  1
  Pt  Pt9  1  0.250000  0.302344  0.584832  1
  Pt  Pt10  1  0.750000  0.697656  0.415168  1
  Pt  Pt11  1  0.750000  0.197656  0.084832  1
