# generated using pymatgen
data_Hf3Al2
_symmetry_space_group_name_H-M   'P 1'
_cell_length_a   7.58794692
_cell_length_b   7.58794692
_cell_length_c   6.87561791
_cell_angle_alpha   90.00000000
_cell_angle_beta   90.00000000
_cell_angle_gamma   90.00000000
_symmetry_Int_Tables_number   1
_chemical_formula_structural   Hf3Al2
_chemical_formula_sum   'Hf12 Al8'
_cell_volume   395.87702928
_cell_formula_units_Z   4
loop_
 _symmetry_equiv_pos_site_id
 _symmetry_equiv_pos_as_xyz
  1  'x, y, z'
loop_
 _atom_site_type_symbol
 _atom_site_label
 _atom_site_symmetry_multiplicity
 _atom_site_fract_x
 _atom_site_fract_y
 _atom_site_fract_z
 _atom_site_occupancy
  Hf  Hf0  1  0.344859  0.344859  0.000000  1
  Hf  Hf1  1  0.844859  0.155141  0.500000  1
  Hf  Hf2  1  0.155141  0.844859  0.500000  1
  Hf  Hf3  1  0.655141  0.655141  0.000000  1
  Hf  Hf4  1  0.797867  0.202133  0.000000  1
  Hf  Hf5  1  0.702133  0.702133  0.500000  1
  Hf  Hf6  1  0.297867  0.297867  0.500000  1
  Hf  Hf7  1  0.202133  0.797867  0.000000  1
  Hf  Hf8  1  0.500000  0.000000  0.250000  1
  Hf  Hf9  1  0.500000  0.000000  0.750000  1
  Hf  Hf10  1  0.000000  0.500000  0.250000  1
  Hf  Hf11  1  0.000000  0.500000  0.750000  1
  Al  Al12  1  0.121232  0.121232  0.209997  1
  Al  Al13  1  0.621232  0.378768  0.709997  1
  Al  Al14  1  0.378768  0.621232  0.709997  1
  Al  Al15  1  0.878768  0.878768  0.209997  1
  Al  Al16  1  0.378768  0.621232  0.290003  1
  Al  Al17  1  0.621232  0.378768  0.290003  1
  Al  Al18  1  0.121232  0.121232  0.790003  1
  Al  Al19  1  0.878768  0.878768  0.790003  1
