# generated using pymatgen
data_LiMnP2O7
_symmetry_space_group_name_H-M   'P 1'
_cell_length_a   4.96443383
_cell_length_b   6.82292940
_cell_length_c   8.12890225
_cell_angle_alpha   91.82392753
_cell_angle_beta   93.14232784
_cell_angle_gamma   104.74421927
_symmetry_Int_Tables_number   1
_chemical_formula_structural   LiMnP2O7
_chemical_formula_sum   'Li2 Mn2 P4 O14'
_cell_volume   265.57613762
_cell_formula_units_Z   2
loop_
 _symmetry_equiv_pos_site_id
 _symmetry_equiv_pos_as_xyz
  1  'x, y, z'
loop_
 _atom_site_type_symbol
 _atom_site_label
 _atom_site_symmetry_multiplicity
 _atom_site_fract_x
 _atom_site_fract_y
 _atom_site_fract_z
 _atom_site_occupancy
  Li  Li0  1  0.584429  0.588467  0.900318  1
  Li  Li1  1  0.060305  0.967872  0.437620  1
  Mn  Mn2  1  0.498192  0.496548  0.498754  1
  Mn  Mn3  1  0.009145  0.012316  0.999890  1
  P  P4  1  0.541716  0.150320  0.772009  1
  P  P5  1  0.133594  0.748079  0.696232  1
  P  P6  1  0.867582  0.252857  0.301538  1
  P  P7  1  0.458088  0.845604  0.226593  1
  O  O8  1  0.392739  0.197620  0.919645  1
  O  O9  1  0.027886  0.755159  0.870944  1
  O  O10  1  0.797051  0.066925  0.808145  1
  O  O11  1  0.331565  0.606250  0.693542  1
  O  O12  1  0.627315  0.330211  0.660799  1
  O  O13  1  0.322996  0.973524  0.655580  1
  O  O14  1  0.908465  0.716600  0.557461  1
  O  O15  1  0.108578  0.271259  0.430053  1
  O  O16  1  0.684719  0.021206  0.338291  1
  O  O17  1  0.374399  0.676763  0.347017  1
  O  O18  1  0.680459  0.396962  0.318976  1
  O  O19  1  0.199455  0.931258  0.196370  1
  O  O20  1  0.943597  0.246095  0.121172  1
  O  O21  1  0.596653  0.798792  0.074198  1
