# generated using pymatgen
data_Nb16Tl16O53
_symmetry_space_group_name_H-M   'P 1'
_cell_length_a   13.20524996
_cell_length_b   13.20524996
_cell_length_c   13.20524996
_cell_angle_alpha   131.82098363
_cell_angle_beta   131.82098363
_cell_angle_gamma   70.51191115
_symmetry_Int_Tables_number   1
_chemical_formula_structural   Nb16Tl16O53
_chemical_formula_sum   'Nb16 Tl16 O53'
_cell_volume   1253.04694025
_cell_formula_units_Z   1
loop_
 _symmetry_equiv_pos_site_id
 _symmetry_equiv_pos_as_xyz
  1  'x, y, z'
loop_
 _atom_site_type_symbol
 _atom_site_label
 _atom_site_symmetry_multiplicity
 _atom_site_fract_x
 _atom_site_fract_y
 _atom_site_fract_z
 _atom_site_occupancy
  Nb  Nb0  1  0.563295  0.811765  0.500551  1
  Nb  Nb1  1  0.311215  0.062744  0.499449  1
  Nb  Nb2  1  0.062744  0.311215  0.499449  1
  Nb  Nb3  1  0.811765  0.563295  0.500551  1
  Nb  Nb4  1  0.939393  0.939393  0.251867  1
  Nb  Nb5  1  0.687526  0.687526  0.748133  1
  Nb  Nb6  1  0.188175  0.188175  0.752543  1
  Nb  Nb7  1  0.435633  0.435633  0.247457  1
  Nb  Nb8  1  0.564367  0.811825  1.000000  1
  Nb  Nb9  1  0.811825  0.564367  0.000000  1
  Nb  Nb10  1  0.312474  0.060607  0.000000  1
  Nb  Nb11  1  0.060607  0.312474  0.000000  1
  Nb  Nb12  1  0.188235  0.688785  0.751530  1
  Nb  Nb13  1  0.688785  0.188235  0.751530  1
  Nb  Nb14  1  0.436705  0.937256  0.248470  1
  Nb  Nb15  1  0.937256  0.436705  0.248470  1
  Tl  Tl16  1  0.565402  0.317290  0.000000  1
  Tl  Tl17  1  0.062531  0.813229  1.000000  1
  Tl  Tl18  1  0.813229  0.062531  0.000000  1
  Tl  Tl19  1  0.317290  0.565402  1.000000  1
  Tl  Tl20  1  0.929106  0.432612  0.739341  1
  Tl  Tl21  1  0.189766  0.693271  0.260659  1
  Tl  Tl22  1  0.693271  0.189766  0.260659  1
  Tl  Tl23  1  0.432612  0.929106  0.739341  1
  Tl  Tl24  1  0.567388  0.306729  0.496494  1
  Tl  Tl25  1  0.070894  0.810234  0.503506  1
  Tl  Tl26  1  0.306729  0.567388  0.496494  1
  Tl  Tl27  1  0.810234  0.070894  0.503506  1
  Tl  Tl28  1  0.434598  0.434598  0.751888  1
  Tl  Tl29  1  0.186771  0.186771  0.249301  1
  Tl  Tl30  1  0.682710  0.682710  0.248112  1
  Tl  Tl31  1  0.937469  0.937469  0.750699  1
  O  O32  1  0.910721  0.410721  0.500000  1
  O  O33  1  0.410721  0.910721  0.500000  1
  O  O34  1  0.627863  0.815968  0.691668  1
  O  O35  1  0.815968  0.627863  0.691668  1
  O  O36  1  0.444425  0.627631  0.320321  1
  O  O37  1  0.643890  0.121558  0.000000  1
  O  O38  1  0.936194  0.124300  0.308332  1
  O  O39  1  0.307311  0.124104  0.679679  1
  O  O40  1  0.627631  0.444425  0.320321  1
  O  O41  1  0.121558  0.643890  0.000000  1
  O  O42  1  0.124300  0.936194  0.308332  1
  O  O43  1  0.124104  0.307311  0.679679  1
  O  O44  1  0.853591  0.853591  0.000000  1
  O  O45  1  0.343419  0.343419  0.000000  1
  O  O46  1  0.536572  0.536572  0.503546  1
  O  O47  1  0.033026  0.033026  0.496454  1
  O  O48  1  0.430466  0.250252  0.182054  1
  O  O49  1  0.751588  0.569534  0.819786  1
  O  O50  1  0.569534  0.751588  0.819786  1
  O  O51  1  0.068198  0.248412  0.817946  1
  O  O52  1  0.749748  0.931802  0.180214  1
  O  O53  1  0.931802  0.749748  0.180214  1
  O  O54  1  0.250252  0.430466  0.182054  1
  O  O55  1  0.248412  0.068198  0.817946  1
  O  O56  1  0.966974  0.463428  0.000000  1
  O  O57  1  0.463428  0.966974  1.000000  1
  O  O58  1  0.146409  0.146409  0.000000  1
  O  O59  1  0.656581  0.656581  0.000000  1
  O  O60  1  0.184032  0.875700  0.811894  1
  O  O61  1  0.692689  0.372369  0.816793  1
  O  O62  1  0.356110  0.356110  0.477668  1
  O  O63  1  0.555575  0.875896  0.183207  1
  O  O64  1  0.875700  0.184032  0.811894  1
  O  O65  1  0.372369  0.692689  0.816793  1
  O  O66  1  0.878442  0.878442  0.522332  1
  O  O67  1  0.875896  0.555575  0.183207  1
  O  O68  1  0.372137  0.063806  0.188106  1
  O  O69  1  0.063806  0.372137  0.188106  1
  O  O70  1  0.089279  0.589279  0.500000  1
  O  O71  1  0.589279  0.089279  0.500000  1
  O  O72  1  0.781165  0.278464  1.000000  1
  O  O73  1  0.278464  0.781165  1.000000  1
  O  O74  1  0.500000  0.180315  0.680315  1
  O  O75  1  0.000000  0.707210  0.707210  1
  O  O76  1  0.707210  0.000000  0.707210  1
  O  O77  1  0.292790  0.000000  0.292790  1
  O  O78  1  0.180315  0.500000  0.680315  1
  O  O79  1  0.500000  0.819685  0.319685  1
  O  O80  1  0.000000  0.000000  0.000000  1
  O  O81  1  0.819685  0.500000  0.319685  1
  O  O82  1  0.000000  0.292790  0.292790  1
  O  O83  1  0.721536  0.721536  0.502701  1
  O  O84  1  0.218835  0.218835  0.497299  1
