# generated using pymatgen
data_Cs2Sr2(CO3)3
_symmetry_space_group_name_H-M   'P 1'
_cell_length_a   8.81137001
_cell_length_b   8.81137001
_cell_length_c   8.81137001
_cell_angle_alpha   109.47122063
_cell_angle_beta   109.47122063
_cell_angle_gamma   109.47122063
_symmetry_Int_Tables_number   1
_chemical_formula_structural   Cs2Sr2(CO3)3
_chemical_formula_sum   'Cs4 Sr4 C6 O18'
_cell_volume   526.63343227
_cell_formula_units_Z   2
loop_
 _symmetry_equiv_pos_site_id
 _symmetry_equiv_pos_as_xyz
  1  'x, y, z'
loop_
 _atom_site_type_symbol
 _atom_site_label
 _atom_site_symmetry_multiplicity
 _atom_site_fract_x
 _atom_site_fract_y
 _atom_site_fract_z
 _atom_site_occupancy
  Cs  Cs0  1  0.883657  0.883657  0.883657  1
  Cs  Cs1  1  0.500000  1.000000  0.616343  1
  Cs  Cs2  1  0.616343  0.500000  0.000000  1
  Cs  Cs3  1  0.000000  0.616343  0.500000  1
  Sr  Sr4  1  0.406446  0.406446  0.406446  1
  Sr  Sr5  1  0.500000  1.000000  0.093554  1
  Sr  Sr6  1  0.093554  0.500000  1.000000  1
  Sr  Sr7  1  1.000000  0.093554  0.500000  1
  C  C8  1  0.589982  0.750000  0.339982  1
  C  C9  1  0.910018  0.250000  0.160018  1
  C  C10  1  0.339982  0.589982  0.750000  1
  C  C11  1  0.750000  0.339982  0.589982  1
  C  C12  1  0.250000  0.160018  0.910018  1
  C  C13  1  0.160018  0.910018  0.250000  1
  O  O14  1  0.415867  0.644414  0.282774  1
  O  O15  1  0.861640  0.133093  0.217226  1
  O  O16  1  0.084133  0.366907  0.228547  1
  O  O17  1  0.638360  0.855586  0.271453  1
  O  O18  1  0.282774  0.415867  0.644414  1
  O  O19  1  0.644414  0.282774  0.415867  1
  O  O20  1  0.271453  0.638360  0.855586  1
  O  O21  1  0.133093  0.217226  0.861640  1
  O  O22  1  0.217226  0.861640  0.133093  1
  O  O23  1  0.366907  0.228547  0.084133  1
  O  O24  1  0.228547  0.084133  0.366907  1
  O  O25  1  0.855586  0.271453  0.638360  1
  O  O26  1  0.718279  0.750000  0.468279  1
  O  O27  1  0.781721  0.250000  0.031721  1
  O  O28  1  0.468279  0.718279  0.750000  1
  O  O29  1  0.750000  0.468279  0.718279  1
  O  O30  1  0.250000  0.031721  0.781721  1
  O  O31  1  0.031721  0.781721  0.250000  1
