# generated using pymatgen
data_Li4Mn3Fe(BO3)4
_symmetry_space_group_name_H-M   'P 1'
_cell_length_a   5.24963469
_cell_length_b   5.25489010
_cell_length_c   21.00431291
_cell_angle_alpha   91.16627250
_cell_angle_beta   90.60907176
_cell_angle_gamma   119.82121603
_symmetry_Int_Tables_number   1
_chemical_formula_structural   Li4Mn3Fe(BO3)4
_chemical_formula_sum   'Li8 Mn6 Fe2 B8 O24'
_cell_volume   502.45493237
_cell_formula_units_Z   2
loop_
 _symmetry_equiv_pos_site_id
 _symmetry_equiv_pos_as_xyz
  1  'x, y, z'
loop_
 _atom_site_type_symbol
 _atom_site_label
 _atom_site_symmetry_multiplicity
 _atom_site_fract_x
 _atom_site_fract_y
 _atom_site_fract_z
 _atom_site_occupancy
  Li  Li0  1  0.347579  0.323037  0.666122  1
  Li  Li1  1  0.321923  0.347436  0.916080  1
  Li  Li2  1  0.349283  0.321207  0.166093  1
  Li  Li3  1  0.321697  0.349291  0.416165  1
  Li  Li4  1  0.664634  0.652507  0.790978  1
  Li  Li5  1  0.651490  0.662237  0.541885  1
  Li  Li6  1  0.662250  0.651698  0.291243  1
  Li  Li7  1  0.651812  0.661990  0.041099  1
  Mn  Mn8  1  0.993255  0.325680  0.559230  1
  Mn  Mn9  1  0.996312  0.329364  0.058190  1
  Mn  Mn10  1  0.999765  0.678719  0.932544  1
  Mn  Mn11  1  0.997455  0.676388  0.433760  1
  Mn  Mn12  1  0.676981  0.996931  0.183376  1
  Mn  Mn13  1  0.329059  0.996017  0.308395  1
  Fe  Fe14  1  0.675796  0.993645  0.684724  1
  Fe  Fe15  1  0.335823  0.003207  0.807083  1
  B  B16  1  0.658864  0.003489  0.936534  1
  B  B17  1  0.658341  0.002604  0.437207  1
  B  B18  1  0.995458  0.332722  0.811181  1
  B  B19  1  0.994773  0.333891  0.312040  1
  B  B20  1  0.002903  0.662455  0.687447  1
  B  B21  1  0.002927  0.658314  0.187132  1
  B  B22  1  0.333679  0.993633  0.563028  1
  B  B23  1  0.334010  0.995090  0.062038  1
  O  O24  1  0.747345  0.069789  0.791923  1
  O  O25  1  0.753511  0.070683  0.290928  1
  O  O26  1  0.929241  0.254208  0.951697  1
  O  O27  1  0.421548  0.033460  0.915801  1
  O  O28  1  0.928736  0.252976  0.452389  1
  O  O29  1  0.420929  0.032681  0.416435  1
  O  O30  1  0.974429  0.582630  0.825303  1
  O  O31  1  0.357512  0.267867  0.569977  1
  O  O32  1  0.962176  0.577668  0.327334  1
  O  O33  1  0.358593  0.268930  0.069216  1
  O  O34  1  0.265513  0.345731  0.818086  1
  O  O35  1  0.269125  0.358342  0.319558  1
  O  O36  1  0.729308  0.642921  0.693752  1
  O  O37  1  0.727304  0.629039  0.194300  1
  O  O38  1  0.629967  0.728457  0.943736  1
  O  O39  1  0.019739  0.415858  0.668731  1
  O  O40  1  0.629140  0.727878  0.444675  1
  O  O41  1  0.033364  0.420701  0.166479  1
  O  O42  1  0.577128  0.961899  0.578774  1
  O  O43  1  0.577629  0.962367  0.077396  1
  O  O44  1  0.071175  0.751232  0.541680  1
  O  O45  1  0.070680  0.752790  0.040927  1
  O  O46  1  0.255896  0.930065  0.701313  1
  O  O47  1  0.252744  0.929072  0.202214  1
