# generated using pymatgen
data_LiFe2C2O7
_symmetry_space_group_name_H-M   'P 1'
_cell_length_a   8.33042474
_cell_length_b   8.33042474
_cell_length_c   8.06329291
_cell_angle_alpha   89.46621845
_cell_angle_beta   90.53378155
_cell_angle_gamma   119.09441285
_symmetry_Int_Tables_number   1
_chemical_formula_structural   LiFe2C2O7
_chemical_formula_sum   'Li3 Fe6 C6 O21'
_cell_volume   488.92603962
_cell_formula_units_Z   3
loop_
 _symmetry_equiv_pos_site_id
 _symmetry_equiv_pos_as_xyz
  1  'x, y, z'
loop_
 _atom_site_type_symbol
 _atom_site_label
 _atom_site_symmetry_multiplicity
 _atom_site_fract_x
 _atom_site_fract_y
 _atom_site_fract_z
 _atom_site_occupancy
  Li  Li0  1  0.723070  0.723070  0.500000  1
  Li  Li1  1  0.996599  0.355850  0.506577  1
  Li  Li2  1  0.355850  0.996599  0.493423  1
  Fe  Fe3  1  0.672290  0.337916  0.193873  1
  Fe  Fe4  1  0.337916  0.672290  0.806127  1
  Fe  Fe5  1  0.659772  0.340675  0.738868  1
  Fe  Fe6  1  0.340675  0.659772  0.261132  1
  Fe  Fe7  1  0.997833  0.994454  0.727274  1
  Fe  Fe8  1  0.994454  0.997833  0.272726  1
  C  C9  1  0.003924  0.659523  0.703757  1
  C  C10  1  0.659523  0.003924  0.296243  1
  C  C11  1  0.658559  0.003801  0.704175  1
  C  C12  1  0.003801  0.658559  0.295825  1
  C  C13  1  0.332791  0.335607  0.704307  1
  C  C14  1  0.335607  0.332791  0.295693  1
  O  O15  1  0.967637  0.967637  0.500000  1
  O  O16  1  0.919534  0.734508  0.222892  1
  O  O17  1  0.734508  0.919534  0.777108  1
  O  O18  1  0.837883  0.596436  0.647440  1
  O  O19  1  0.596436  0.837883  0.352560  1
  O  O20  1  0.917475  0.479159  0.312211  1
  O  O21  1  0.479159  0.917475  0.687789  1
  O  O22  1  0.676389  0.338223  0.976426  1
  O  O23  1  0.338223  0.676389  0.023574  1
  O  O24  1  0.169073  0.752563  0.353830  1
  O  O25  1  0.752563  0.169073  0.646170  1
  O  O26  1  0.513550  0.433985  0.294361  1
  O  O27  1  0.433985  0.513550  0.705639  1
  O  O28  1  0.817951  0.089736  0.226088  1
  O  O29  1  0.089736  0.817951  0.773912  1
  O  O30  1  0.562477  0.087339  0.309685  1
  O  O31  1  0.087339  0.562477  0.690315  1
  O  O32  1  0.399494  0.235114  0.645747  1
  O  O33  1  0.235114  0.399494  0.354253  1
  O  O34  1  0.168698  0.260976  0.763017  1
  O  O35  1  0.260976  0.168698  0.236983  1
