# generated using pymatgen
data_LiTa3O8
_symmetry_space_group_name_H-M   'P 1'
_cell_length_a   7.78152864
_cell_length_b   8.99892652
_cell_length_c   16.98349268
_cell_angle_alpha   90.00000000
_cell_angle_beta   90.00000000
_cell_angle_gamma   90.00000000
_symmetry_Int_Tables_number   1
_chemical_formula_structural   LiTa3O8
_chemical_formula_sum   'Li8 Ta24 O64'
_cell_volume   1189.27594380
_cell_formula_units_Z   8
loop_
 _symmetry_equiv_pos_site_id
 _symmetry_equiv_pos_as_xyz
  1  'x, y, z'
loop_
 _atom_site_type_symbol
 _atom_site_label
 _atom_site_symmetry_multiplicity
 _atom_site_fract_x
 _atom_site_fract_y
 _atom_site_fract_z
 _atom_site_occupancy
  Li  Li0  1  0.500000  0.078236  0.090135  1
  Li  Li1  1  0.000000  0.317698  0.251502  1
  Li  Li2  1  0.500000  0.080921  0.410039  1
  Li  Li3  1  0.000000  0.530910  0.495301  1
  Li  Li4  1  0.000000  0.921764  0.590135  1
  Li  Li5  1  0.500000  0.682302  0.751502  1
  Li  Li6  1  0.000000  0.919079  0.910039  1
  Li  Li7  1  0.500000  0.469090  0.995301  1
  Ta  Ta8  1  0.250808  0.808127  0.059972  1
  Ta  Ta9  1  0.749192  0.808127  0.059972  1
  Ta  Ta10  1  0.748643  0.394910  0.129913  1
  Ta  Ta11  1  0.251357  0.394910  0.129913  1
  Ta  Ta12  1  0.248172  0.686141  0.250495  1
  Ta  Ta13  1  0.748501  0.051115  0.249769  1
  Ta  Ta14  1  0.251499  0.051115  0.249769  1
  Ta  Ta15  1  0.751828  0.686141  0.250495  1
  Ta  Ta16  1  0.744409  0.394182  0.370498  1
  Ta  Ta17  1  0.255591  0.394182  0.370498  1
  Ta  Ta18  1  0.251599  0.812397  0.439852  1
  Ta  Ta19  1  0.748401  0.812397  0.439852  1
  Ta  Ta20  1  0.750808  0.191873  0.559972  1
  Ta  Ta21  1  0.249192  0.191873  0.559972  1
  Ta  Ta22  1  0.248643  0.605090  0.629913  1
  Ta  Ta23  1  0.751357  0.605090  0.629913  1
  Ta  Ta24  1  0.748172  0.313859  0.750495  1
  Ta  Ta25  1  0.251828  0.313859  0.750495  1
  Ta  Ta26  1  0.248501  0.948885  0.749769  1
  Ta  Ta27  1  0.751499  0.948885  0.749769  1
  Ta  Ta28  1  0.244409  0.605818  0.870498  1
  Ta  Ta29  1  0.755591  0.605818  0.870498  1
  Ta  Ta30  1  0.751599  0.187603  0.939852  1
  Ta  Ta31  1  0.248401  0.187603  0.939852  1
  O  O32  1  0.747105  0.999190  0.999244  1
  O  O33  1  0.252895  0.999190  0.999244  1
  O  O34  1  0.779162  0.337496  0.021129  1
  O  O35  1  0.220838  0.337496  0.021129  1
  O  O36  1  0.000000  0.807882  0.041463  1
  O  O37  1  0.500000  0.847421  0.074129  1
  O  O38  1  0.500000  0.417461  0.107244  1
  O  O39  1  0.755888  0.619147  0.132056  1
  O  O40  1  0.244112  0.619147  0.132056  1
  O  O41  1  0.000000  0.382478  0.145134  1
  O  O42  1  0.291285  0.189879  0.163160  1
  O  O43  1  0.708715  0.189879  0.163160  1
  O  O44  1  0.775192  0.875830  0.174570  1
  O  O45  1  0.224808  0.875830  0.174570  1
  O  O46  1  0.500000  0.697271  0.250443  1
  O  O47  1  0.735198  0.450583  0.250169  1
  O  O48  1  0.000000  0.672505  0.250017  1
  O  O49  1  0.264802  0.450583  0.250169  1
  O  O50  1  0.500000  0.017211  0.250133  1
  O  O51  1  0.000000  0.098534  0.249527  1
  O  O52  1  0.775948  0.875784  0.325127  1
  O  O53  1  0.224052  0.875784  0.325127  1
  O  O54  1  0.287384  0.187287  0.338238  1
  O  O55  1  0.712616  0.187287  0.338238  1
  O  O56  1  0.000000  0.389448  0.356113  1
  O  O57  1  0.755267  0.618599  0.368810  1
  O  O58  1  0.244733  0.618599  0.368810  1
  O  O59  1  0.500000  0.410172  0.388665  1
  O  O60  1  0.500000  0.847873  0.426491  1
  O  O61  1  0.000000  0.797896  0.456733  1
  O  O62  1  0.793893  0.343122  0.480165  1
  O  O63  1  0.206107  0.343122  0.480165  1
  O  O64  1  0.752895  0.000810  0.499244  1
  O  O65  1  0.247105  0.000810  0.499244  1
  O  O66  1  0.279162  0.662504  0.521129  1
  O  O67  1  0.720838  0.662504  0.521129  1
  O  O68  1  0.500000  0.192118  0.541463  1
  O  O69  1  0.000000  0.152579  0.574129  1
  O  O70  1  0.000000  0.582539  0.607244  1
  O  O71  1  0.255888  0.380853  0.632056  1
  O  O72  1  0.744112  0.380853  0.632056  1
  O  O73  1  0.500000  0.617522  0.645134  1
  O  O74  1  0.791285  0.810121  0.663160  1
  O  O75  1  0.208715  0.810121  0.663160  1
  O  O76  1  0.275192  0.124170  0.674570  1
  O  O77  1  0.724808  0.124170  0.674570  1
  O  O78  1  0.000000  0.302729  0.750443  1
  O  O79  1  0.000000  0.982789  0.750133  1
  O  O80  1  0.235198  0.549417  0.750169  1
  O  O81  1  0.500000  0.327495  0.750017  1
  O  O82  1  0.500000  0.901466  0.749527  1
  O  O83  1  0.764802  0.549417  0.750169  1
  O  O84  1  0.275948  0.124216  0.825127  1
  O  O85  1  0.724052  0.124216  0.825127  1
  O  O86  1  0.787384  0.812713  0.838238  1
  O  O87  1  0.212616  0.812713  0.838238  1
  O  O88  1  0.500000  0.610552  0.856113  1
  O  O89  1  0.255267  0.381401  0.868810  1
  O  O90  1  0.744733  0.381401  0.868810  1
  O  O91  1  0.000000  0.589828  0.888665  1
  O  O92  1  0.000000  0.152127  0.926491  1
  O  O93  1  0.500000  0.202104  0.956733  1
  O  O94  1  0.293893  0.656878  0.980165  1
  O  O95  1  0.706107  0.656878  0.980165  1
