# generated using pymatgen
data_CsBa2Cr2F11
_symmetry_space_group_name_H-M   'P 1'
_cell_length_a   8.90124612
_cell_length_b   8.90124612
_cell_length_c   8.90124612
_cell_angle_alpha   139.84338649
_cell_angle_beta   139.84338649
_cell_angle_gamma   58.09117118
_symmetry_Int_Tables_number   1
_chemical_formula_structural   CsBa2Cr2F11
_chemical_formula_sum   'Cs1 Ba2 Cr2 F11'
_cell_volume   290.66850438
_cell_formula_units_Z   1
loop_
 _symmetry_equiv_pos_site_id
 _symmetry_equiv_pos_as_xyz
  1  'x, y, z'
loop_
 _atom_site_type_symbol
 _atom_site_label
 _atom_site_symmetry_multiplicity
 _atom_site_fract_x
 _atom_site_fract_y
 _atom_site_fract_z
 _atom_site_occupancy
  Cs  Cs0  1  0.000000  0.000000  0.000000  1
  Ba  Ba1  1  0.250000  0.750000  0.500000  1
  Ba  Ba2  1  0.750000  0.250000  0.500000  1
  Cr  Cr3  1  0.625204  0.625204  0.000000  1
  Cr  Cr4  1  0.374796  0.374796  0.000000  1
  F  F5  1  0.500000  0.500000  0.000000  1
  F  F6  1  0.408827  0.408827  0.550338  1
  F  F7  1  0.408827  0.858489  0.000000  1
  F  F8  1  0.858489  0.408827  0.000000  1
  F  F9  1  0.858489  0.858489  0.449662  1
  F  F10  1  0.250276  0.250276  0.000000  1
  F  F11  1  0.749724  0.749724  0.000000  1
  F  F12  1  0.141511  0.141511  0.550338  1
  F  F13  1  0.141511  0.591173  0.000000  1
  F  F14  1  0.591173  0.141511  0.000000  1
  F  F15  1  0.591173  0.591173  0.449662  1
