# generated using pymatgen
data_LiMn3(BO3)3
_symmetry_space_group_name_H-M   'P 1'
_cell_length_a   5.78681698
_cell_length_b   8.18038421
_cell_length_c   9.15868990
_cell_angle_alpha   110.46847514
_cell_angle_beta   105.14312768
_cell_angle_gamma   100.73047326
_symmetry_Int_Tables_number   1
_chemical_formula_structural   LiMn3(BO3)3
_chemical_formula_sum   'Li2 Mn6 B6 O18'
_cell_volume   373.15949322
_cell_formula_units_Z   2
loop_
 _symmetry_equiv_pos_site_id
 _symmetry_equiv_pos_as_xyz
  1  'x, y, z'
loop_
 _atom_site_type_symbol
 _atom_site_label
 _atom_site_symmetry_multiplicity
 _atom_site_fract_x
 _atom_site_fract_y
 _atom_site_fract_z
 _atom_site_occupancy
  Li  Li0  1  0.150786  0.835393  0.218653  1
  Li  Li1  1  0.505143  0.173882  0.892970  1
  Mn  Mn2  1  0.578858  0.826803  0.800350  1
  Mn  Mn3  1  0.762919  0.506928  0.847907  1
  Mn  Mn4  1  0.078604  0.821643  0.546144  1
  Mn  Mn5  1  0.903447  0.149754  0.479139  1
  Mn  Mn6  1  0.228797  0.479219  0.118784  1
  Mn  Mn7  1  0.454563  0.184634  0.211656  1
  B  B8  1  0.433987  0.175387  0.553098  1
  B  B9  1  0.908234  0.155465  0.128365  1
  B  B10  1  0.772531  0.520295  0.203683  1
  B  B11  1  0.222560  0.474974  0.771274  1
  B  B12  1  0.119420  0.864204  0.895091  1
  B  B13  1  0.540351  0.812125  0.449413  1
  O  O14  1  0.793004  0.089498  0.961261  1
  O  O15  1  0.412816  0.791312  0.555225  1
  O  O16  1  0.160170  0.269254  0.208257  1
  O  O17  1  0.528826  0.254181  0.723584  1
  O  O18  1  0.189071  0.050941  0.462874  1
  O  O19  1  0.896260  0.575618  0.110915  1
  O  O20  1  0.240563  0.924975  0.801131  1
  O  O21  1  0.469035  0.595351  0.853230  1
  O  O22  1  0.862828  0.594835  0.373342  1
  O  O23  1  0.126746  0.393500  0.602534  1
  O  O24  1  0.547507  0.371684  0.118423  1
  O  O25  1  0.775645  0.129193  0.230498  1
  O  O26  1  0.083224  0.449938  0.869489  1
  O  O27  1  0.794785  0.927705  0.531901  1
  O  O28  1  0.430876  0.744129  0.283517  1
  O  O29  1  0.891808  0.723775  0.807930  1
  O  O30  1  0.579452  0.203054  0.459739  1
  O  O31  1  0.222463  0.932662  0.064785  1
