# generated using pymatgen
data_Tb2Ni12As7
_symmetry_space_group_name_H-M   'P 1'
_cell_length_a   9.35067818
_cell_length_b   9.35067818
_cell_length_c   3.85108413
_cell_angle_alpha   90.00000000
_cell_angle_beta   90.00000000
_cell_angle_gamma   120.00000000
_symmetry_Int_Tables_number   1
_chemical_formula_structural   Tb2Ni12As7
_chemical_formula_sum   'Tb2 Ni12 As7'
_cell_volume   291.60828487
_cell_formula_units_Z   1
loop_
 _symmetry_equiv_pos_site_id
 _symmetry_equiv_pos_as_xyz
  1  'x, y, z'
loop_
 _atom_site_type_symbol
 _atom_site_label
 _atom_site_symmetry_multiplicity
 _atom_site_fract_x
 _atom_site_fract_y
 _atom_site_fract_z
 _atom_site_occupancy
  Tb  Tb0  1  0.666667  0.333333  0.000000  1
  Tb  Tb1  1  0.000000  0.000000  0.500000  1
  Ni  Ni2  1  0.710389  0.091458  0.500000  1
  Ni  Ni3  1  0.908542  0.618930  0.500000  1
  Ni  Ni4  1  0.381070  0.289611  0.500000  1
  Ni  Ni5  1  0.773418  0.722667  0.000000  1
  Ni  Ni6  1  0.277333  0.050751  0.000000  1
  Ni  Ni7  1  0.949249  0.226582  0.000000  1
  Ni  Ni8  1  0.544712  0.762518  0.500000  1
  Ni  Ni9  1  0.237482  0.782194  0.500000  1
  Ni  Ni10  1  0.217806  0.455288  0.500000  1
  Ni  Ni11  1  0.483960  0.946171  0.000000  1
  Ni  Ni12  1  0.053829  0.537789  0.000000  1
  Ni  Ni13  1  0.462211  0.516040  0.000000  1
  As  As14  1  0.333333  0.666667  0.000000  1
  As  As15  1  0.441947  0.073206  0.500000  1
  As  As16  1  0.926794  0.368741  0.500000  1
  As  As17  1  0.631259  0.558053  0.500000  1
  As  As18  1  0.735798  0.951459  0.000000  1
  As  As19  1  0.048541  0.784339  0.000000  1
  As  As20  1  0.215661  0.264202  0.000000  1
