# generated using pymatgen
data_Li5Fe8(BO3)8
_symmetry_space_group_name_H-M   'P 1'
_cell_length_a   5.29378636
_cell_length_b   9.06757946
_cell_length_c   10.12543891
_cell_angle_alpha   90.39228660
_cell_angle_beta   91.63201942
_cell_angle_gamma   90.34098650
_symmetry_Int_Tables_number   1
_chemical_formula_structural   Li5Fe8(BO3)8
_chemical_formula_sum   'Li5 Fe8 B8 O24'
_cell_volume   485.82184997
_cell_formula_units_Z   1
loop_
 _symmetry_equiv_pos_site_id
 _symmetry_equiv_pos_as_xyz
  1  'x, y, z'
loop_
 _atom_site_type_symbol
 _atom_site_label
 _atom_site_symmetry_multiplicity
 _atom_site_fract_x
 _atom_site_fract_y
 _atom_site_fract_z
 _atom_site_occupancy
  Li  Li0  1  0.666156  0.004829  0.153529  1
  Li  Li1  1  0.340478  0.001593  0.904112  1
  Li  Li2  1  0.836601  0.497238  0.883778  1
  Li  Li3  1  0.160060  0.511970  0.152951  1
  Li  Li4  1  0.354284  0.992167  0.417600  1
  Fe  Fe5  1  0.835435  0.156371  0.877547  1
  Fe  Fe6  1  0.156117  0.170845  0.633935  1
  Fe  Fe7  1  0.664451  0.342843  0.130539  1
  Fe  Fe8  1  0.343864  0.337192  0.376461  1
  Fe  Fe9  1  0.662283  0.670202  0.634086  1
  Fe  Fe10  1  0.848593  0.828424  0.382175  1
  Fe  Fe11  1  0.334513  0.659277  0.879324  1
  Fe  Fe12  1  0.160247  0.839761  0.127842  1
  B  B13  1  0.830251  0.166896  0.375673  1
  B  B14  1  0.660797  0.333058  0.631127  1
  B  B15  1  0.164740  0.168523  0.129475  1
  B  B16  1  0.336817  0.330596  0.879809  1
  B  B17  1  0.665657  0.668823  0.124242  1
  B  B18  1  0.346528  0.670518  0.378419  1
  B  B19  1  0.835710  0.833759  0.880201  1
  B  B20  1  0.169655  0.835367  0.630036  1
  O  O21  1  0.708058  0.034358  0.362656  1
  O  O22  1  0.909035  0.166059  0.096005  1
  O  O23  1  0.311819  0.044885  0.114992  1
  O  O24  1  0.803819  0.208672  0.661416  1
  O  O25  1  0.701117  0.296637  0.344807  1
  O  O26  1  0.223430  0.195635  0.832504  1
  O  O27  1  0.089935  0.176243  0.415987  1
  O  O28  1  0.590724  0.327480  0.917824  1
  O  O29  1  0.752003  0.469874  0.657745  1
  O  O30  1  0.413804  0.311408  0.576357  1
  O  O31  1  0.278512  0.301368  0.175703  1
  O  O32  1  0.808963  0.542662  0.109986  1
  O  O33  1  0.193846  0.454088  0.888965  1
  O  O34  1  0.725252  0.698748  0.839600  1
  O  O35  1  0.582699  0.678750  0.439808  1
  O  O36  1  0.236908  0.534550  0.349690  1
  O  O37  1  0.407499  0.665904  0.092740  1
  O  O38  1  0.918843  0.814607  0.594446  1
  O  O39  1  0.783040  0.799501  0.166919  1
  O  O40  1  0.314939  0.718327  0.672915  1
  O  O41  1  0.224798  0.800827  0.342659  1
  O  O42  1  0.688671  0.957216  0.890217  1
  O  O43  1  0.093171  0.838730  0.913088  1
  O  O44  1  0.274764  0.975148  0.615676  1
