# generated using pymatgen
data_Li2VPO4F
_symmetry_space_group_name_H-M   'P 1'
_cell_length_a   13.06212123
_cell_length_b   5.11042809
_cell_length_c   13.21788437
_cell_angle_alpha   90.00000000
_cell_angle_beta   119.14565822
_cell_angle_gamma   90.00000000
_symmetry_Int_Tables_number   1
_chemical_formula_structural   Li2VPO4F
_chemical_formula_sum   'Li16 V8 P8 O32 F8'
_cell_volume   770.61661113
_cell_formula_units_Z   8
loop_
 _symmetry_equiv_pos_site_id
 _symmetry_equiv_pos_as_xyz
  1  'x, y, z'
loop_
 _atom_site_type_symbol
 _atom_site_label
 _atom_site_symmetry_multiplicity
 _atom_site_fract_x
 _atom_site_fract_y
 _atom_site_fract_z
 _atom_site_occupancy
  Li  Li0  1  0.165424  0.734554  0.336980  1
  Li  Li1  1  0.412885  0.732979  0.581993  1
  Li  Li2  1  0.087115  0.232979  0.418007  1
  Li  Li3  1  0.671366  0.717331  0.836660  1
  Li  Li4  1  0.334576  0.234554  0.663020  1
  Li  Li5  1  0.832688  0.273526  0.916691  1
  Li  Li6  1  0.667312  0.773526  0.083309  1
  Li  Li7  1  0.171366  0.782669  0.836660  1
  Li  Li8  1  0.828634  0.217331  0.163340  1
  Li  Li9  1  0.332688  0.226474  0.916691  1
  Li  Li10  1  0.167312  0.726474  0.083309  1
  Li  Li11  1  0.665424  0.765446  0.336980  1
  Li  Li12  1  0.328634  0.282669  0.163340  1
  Li  Li13  1  0.912885  0.767021  0.581993  1
  Li  Li14  1  0.587115  0.267021  0.418007  1
  Li  Li15  1  0.834576  0.265446  0.663020  1
  V  V16  1  0.322801  0.280343  0.428538  1
  V  V17  1  0.177199  0.780343  0.571462  1
  V  V18  1  0.605987  0.224727  0.928588  1
  V  V19  1  0.894013  0.724727  0.071412  1
  V  V20  1  0.105987  0.275273  0.928588  1
  V  V21  1  0.394013  0.775273  0.071412  1
  V  V22  1  0.822801  0.219657  0.428538  1
  V  V23  1  0.677199  0.719657  0.571462  1
  P  P24  1  0.079346  0.215678  0.166027  1
  P  P25  1  0.585095  0.211562  0.666955  1
  P  P26  1  0.085095  0.288438  0.666955  1
  P  P27  1  0.420654  0.715678  0.833973  1
  P  P28  1  0.579346  0.284322  0.166027  1
  P  P29  1  0.914905  0.711562  0.333045  1
  P  P30  1  0.414905  0.788438  0.333045  1
  P  P31  1  0.920654  0.784322  0.833973  1
  O  O32  1  0.074039  0.909162  0.156207  1
  O  O33  1  0.351221  0.673646  0.395635  1
  O  O34  1  0.143400  0.300270  0.295078  1
  O  O35  1  0.587941  0.904867  0.661525  1
  O  O36  1  0.456463  0.311164  0.607812  1
  O  O37  1  0.043537  0.811164  0.392188  1
  O  O38  1  0.647608  0.308787  0.794125  1
  O  O39  1  0.853562  0.669375  0.893849  1
  O  O40  1  0.356600  0.800270  0.704922  1
  O  O41  1  0.148779  0.173646  0.604365  1
  O  O42  1  0.087941  0.595133  0.661525  1
  O  O43  1  0.546875  0.826274  0.891350  1
  O  O44  1  0.425961  0.409162  0.843793  1
  O  O45  1  0.953125  0.326274  0.108650  1
  O  O46  1  0.147608  0.191213  0.794125  1
  O  O47  1  0.353562  0.830625  0.893849  1
  O  O48  1  0.646438  0.169375  0.106151  1
  O  O49  1  0.852392  0.808787  0.205875  1
  O  O50  1  0.046875  0.673726  0.891350  1
  O  O51  1  0.574039  0.590838  0.156207  1
  O  O52  1  0.453125  0.173726  0.108650  1
  O  O53  1  0.912059  0.404867  0.338475  1
  O  O54  1  0.851221  0.826354  0.395635  1
  O  O55  1  0.643400  0.199730  0.295078  1
  O  O56  1  0.146438  0.330625  0.106151  1
  O  O57  1  0.352392  0.691213  0.205875  1
  O  O58  1  0.956463  0.188836  0.607812  1
  O  O59  1  0.543537  0.688836  0.392188  1
  O  O60  1  0.412059  0.095133  0.338475  1
  O  O61  1  0.856600  0.699730  0.704922  1
  O  O62  1  0.648779  0.326354  0.604365  1
  O  O63  1  0.925961  0.090838  0.843793  1
  F  F64  1  0.263474  0.969935  0.490627  1
  F  F65  1  0.236526  0.469935  0.509373  1
  F  F66  1  0.769310  0.029400  0.990631  1
  F  F67  1  0.730690  0.529400  0.009369  1
  F  F68  1  0.269310  0.470600  0.990631  1
  F  F69  1  0.230690  0.970600  0.009369  1
  F  F70  1  0.763474  0.530065  0.490627  1
  F  F71  1  0.736526  0.030065  0.509373  1
