# generated using pymatgen
data_FeNi3Sn2(PO4)6
_symmetry_space_group_name_H-M   'P 1'
_cell_length_a   8.50176723
_cell_length_b   8.50176723
_cell_length_c   8.50176723
_cell_angle_alpha   61.54910866
_cell_angle_beta   61.54910866
_cell_angle_gamma   61.54910866
_symmetry_Int_Tables_number   1
_chemical_formula_structural   FeNi3Sn2(PO4)6
_chemical_formula_sum   'Fe1 Ni3 Sn2 P6 O24'
_cell_volume   449.62754350
_cell_formula_units_Z   1
loop_
 _symmetry_equiv_pos_site_id
 _symmetry_equiv_pos_as_xyz
  1  'x, y, z'
loop_
 _atom_site_type_symbol
 _atom_site_label
 _atom_site_symmetry_multiplicity
 _atom_site_fract_x
 _atom_site_fract_y
 _atom_site_fract_z
 _atom_site_occupancy
  Fe  Fe0  1  0.149492  0.149492  0.149492  1
  Ni  Ni1  1  0.852376  0.852376  0.852376  1
  Ni  Ni2  1  0.646641  0.646641  0.646641  1
  Ni  Ni3  1  0.353436  0.353436  0.353436  1
  Sn  Sn4  1  0.998749  0.998749  0.998749  1
  Sn  Sn5  1  0.499679  0.499679  0.499679  1
  P  P6  1  0.954116  0.250959  0.547162  1
  P  P7  1  0.547162  0.954116  0.250959  1
  P  P8  1  0.749325  0.453786  0.046166  1
  P  P9  1  0.453786  0.046166  0.749325  1
  P  P10  1  0.046166  0.749325  0.453786  1
  P  P11  1  0.250959  0.547162  0.954116  1
  O  O12  1  0.897282  0.678577  0.487260  1
  O  O13  1  0.678577  0.487260  0.897282  1
  O  O14  1  0.933357  0.095441  0.750436  1
  O  O15  1  0.487260  0.897282  0.678577  1
  O  O16  1  0.996398  0.175768  0.395083  1
  O  O17  1  0.750097  0.403641  0.561967  1
  O  O18  1  0.750436  0.933357  0.095441  1
  O  O19  1  0.561967  0.750097  0.403641  1
  O  O20  1  0.821906  0.602074  0.010810  1
  O  O21  1  0.403641  0.561967  0.750097  1
  O  O22  1  0.907085  0.247757  0.066269  1
  O  O23  1  0.602074  0.010810  0.821906  1
  O  O24  1  0.395083  0.996398  0.175768  1
  O  O25  1  0.095441  0.750436  0.933357  1
  O  O26  1  0.596945  0.431850  0.251590  1
  O  O27  1  0.175768  0.395083  0.996398  1
  O  O28  1  0.431850  0.251590  0.596945  1
  O  O29  1  0.247757  0.066269  0.907085  1
  O  O30  1  0.251590  0.596945  0.431850  1
  O  O31  1  0.010810  0.821906  0.602074  1
  O  O32  1  0.510602  0.102312  0.323607  1
  O  O33  1  0.066269  0.907085  0.247757  1
  O  O34  1  0.323607  0.510602  0.102312  1
  O  O35  1  0.102312  0.323607  0.510602  1
