# generated using pymatgen
data_LiV2CrO6
_symmetry_space_group_name_H-M   'P 1'
_cell_length_a   5.45109057
_cell_length_b   5.45109057
_cell_length_c   5.45109057
_cell_angle_alpha   55.00119312
_cell_angle_beta   55.00119312
_cell_angle_gamma   55.00119312
_symmetry_Int_Tables_number   1
_chemical_formula_structural   LiV2CrO6
_chemical_formula_sum   'Li1 V2 Cr1 O6'
_cell_volume   101.21311552
_cell_formula_units_Z   1
loop_
 _symmetry_equiv_pos_site_id
 _symmetry_equiv_pos_as_xyz
  1  'x, y, z'
loop_
 _atom_site_type_symbol
 _atom_site_label
 _atom_site_symmetry_multiplicity
 _atom_site_fract_x
 _atom_site_fract_y
 _atom_site_fract_z
 _atom_site_occupancy
  Li  Li0  1  0.719854  0.719854  0.719854  1
  V  V1  1  0.997168  0.997168  0.997168  1
  V  V2  1  0.504237  0.504237  0.504237  1
  Cr  Cr3  1  0.197777  0.197777  0.197777  1
  O  O4  1  0.277900  0.605002  0.893475  1
  O  O5  1  0.893475  0.277900  0.605002  1
  O  O6  1  0.605002  0.893475  0.277900  1
  O  O7  1  0.381827  0.147917  0.774871  1
  O  O8  1  0.147917  0.774871  0.381827  1
  O  O9  1  0.774871  0.381827  0.147917  1
