# generated using pymatgen
data_LiV2OF5
_symmetry_space_group_name_H-M   'P 1'
_cell_length_a   5.51764685
_cell_length_b   5.51764685
_cell_length_c   17.78833192
_cell_angle_alpha   77.39788498
_cell_angle_beta   102.60211502
_cell_angle_gamma   123.45742971
_symmetry_Int_Tables_number   1
_chemical_formula_structural   LiV2OF5
_chemical_formula_sum   'Li4 V8 O4 F20'
_cell_volume   437.73394614
_cell_formula_units_Z   4
loop_
 _symmetry_equiv_pos_site_id
 _symmetry_equiv_pos_as_xyz
  1  'x, y, z'
loop_
 _atom_site_type_symbol
 _atom_site_label
 _atom_site_symmetry_multiplicity
 _atom_site_fract_x
 _atom_site_fract_y
 _atom_site_fract_z
 _atom_site_occupancy
  Li  Li0  1  0.370714  0.525696  0.120749  1
  Li  Li1  1  0.861845  0.009350  0.615630  1
  Li  Li2  1  0.009350  0.861845  0.384370  1
  Li  Li3  1  0.525696  0.370714  0.879251  1
  V  V4  1  0.018539  0.902747  0.190147  1
  V  V5  1  0.363435  0.483983  0.305046  1
  V  V6  1  0.111298  0.755067  0.559920  1
  V  V7  1  0.755067  0.111298  0.440080  1
  V  V8  1  0.902747  0.018539  0.809853  1
  V  V9  1  0.276480  0.629631  0.940683  1
  V  V10  1  0.483983  0.363435  0.694954  1
  V  V11  1  0.629631  0.276480  0.059317  1
  O  O12  1  0.219936  0.276294  0.219973  1
  O  O13  1  0.016603  0.016603  0.500000  1
  O  O14  1  0.276294  0.219936  0.780027  1
  O  O15  1  0.539854  0.539854  0.000000  1
  F  F16  1  0.426402  0.174274  0.378152  1
  F  F17  1  0.799125  0.307334  0.752713  1
  F  F18  1  0.307334  0.799125  0.247287  1
  F  F19  1  0.725326  0.533081  0.601954  1
  F  F20  1  0.533081  0.725326  0.398046  1
  F  F21  1  0.044270  0.235680  0.903551  1
  F  F22  1  0.528072  0.962439  0.536281  1
  F  F23  1  0.715557  0.794133  0.713377  1
  F  F24  1  0.794133  0.715557  0.286623  1
  F  F25  1  0.047269  0.478532  0.037331  1
  F  F26  1  0.942800  0.683618  0.875915  1
  F  F27  1  0.235680  0.044270  0.096449  1
  F  F28  1  0.499756  0.764609  0.847287  1
  F  F29  1  0.255476  0.973930  0.652889  1
  F  F30  1  0.973930  0.255476  0.347111  1
  F  F31  1  0.962439  0.528072  0.463719  1
  F  F32  1  0.478532  0.047269  0.962669  1
  F  F33  1  0.174274  0.426402  0.621848  1
  F  F34  1  0.683618  0.942800  0.124085  1
  F  F35  1  0.764609  0.499756  0.152713  1
