# generated using pymatgen
data_PrNdO2
_symmetry_space_group_name_H-M   'P 1'
_cell_length_a   6.25854813
_cell_length_b   6.25854813
_cell_length_c   6.25854813
_cell_angle_alpha   33.23804980
_cell_angle_beta   33.23804980
_cell_angle_gamma   33.23804980
_symmetry_Int_Tables_number   1
_chemical_formula_structural   PrNdO2
_chemical_formula_sum   'Pr1 Nd1 O2'
_cell_volume   65.56711660
_cell_formula_units_Z   1
loop_
 _symmetry_equiv_pos_site_id
 _symmetry_equiv_pos_as_xyz
  1  'x, y, z'
loop_
 _atom_site_type_symbol
 _atom_site_label
 _atom_site_symmetry_multiplicity
 _atom_site_fract_x
 _atom_site_fract_y
 _atom_site_fract_z
 _atom_site_occupancy
  Pr  Pr0  1  0.500000  0.500000  0.500000  1
  Nd  Nd1  1  0.000000  0.000000  0.000000  1
  O  O2  1  0.743713  0.743713  0.743713  1
  O  O3  1  0.256287  0.256287  0.256287  1
