# generated using pymatgen
data_Li7Fe8(BO3)8
_symmetry_space_group_name_H-M   'P 1'
_cell_length_a   5.23065497
_cell_length_b   9.07743699
_cell_length_c   11.44599852
_cell_angle_alpha   112.36395083
_cell_angle_beta   102.92150211
_cell_angle_gamma   89.95164628
_symmetry_Int_Tables_number   1
_chemical_formula_structural   Li7Fe8(BO3)8
_chemical_formula_sum   'Li7 Fe8 B8 O24'
_cell_volume   487.71934739
_cell_formula_units_Z   1
loop_
 _symmetry_equiv_pos_site_id
 _symmetry_equiv_pos_as_xyz
  1  'x, y, z'
loop_
 _atom_site_type_symbol
 _atom_site_label
 _atom_site_symmetry_multiplicity
 _atom_site_fract_x
 _atom_site_fract_y
 _atom_site_fract_z
 _atom_site_occupancy
  Li  Li0  1  0.033196  0.040844  0.415447  1
  Li  Li1  1  0.295114  0.283125  0.912107  1
  Li  Li2  1  0.486663  0.506928  0.664439  1
  Li  Li3  1  0.269434  0.249616  0.168424  1
  Li  Li4  1  0.791809  0.780594  0.905696  1
  Li  Li5  1  0.984033  0.003513  0.663792  1
  Li  Li6  1  0.767187  0.746815  0.166266  1
  Fe  Fe7  1  0.013166  0.362811  0.381805  1
  Fe  Fe8  1  0.265183  0.936478  0.880340  1
  Fe  Fe9  1  0.493739  0.154845  0.635364  1
  Fe  Fe10  1  0.249729  0.565782  0.132350  1
  Fe  Fe11  1  0.771184  0.440922  0.884647  1
  Fe  Fe12  1  0.520852  0.844021  0.385485  1
  Fe  Fe13  1  0.964246  0.653614  0.624363  1
  Fe  Fe14  1  0.745002  0.063180  0.129159  1
  B  B15  1  0.027882  0.688630  0.374281  1
  B  B16  1  0.269506  0.601398  0.876883  1
  B  B17  1  0.477268  0.817010  0.634183  1
  B  B18  1  0.236696  0.896247  0.125845  1
  B  B19  1  0.509319  0.182344  0.377420  1
  B  B20  1  0.769046  0.103184  0.876675  1
  B  B21  1  0.975331  0.310839  0.622293  1
  B  B22  1  0.731300  0.397733  0.128185  1
  O  O23  1  0.025894  0.105732  0.863395  1
  O  O24  1  0.111251  0.712211  0.847404  1
  O  O25  1  0.169761  0.489278  0.914727  1
  O  O26  1  0.088348  0.171979  0.614756  1
  O  O27  1  0.094222  0.420433  0.583732  1
  O  O28  1  0.233221  0.843477  0.665649  1
  O  O29  1  0.260706  0.661681  0.336407  1
  O  O30  1  0.526684  0.601419  0.863410  1
  O  O31  1  0.604897  0.211681  0.846225  1
  O  O32  1  0.416700  0.073848  0.418322  1
  O  O33  1  0.353573  0.298155  0.357979  1
  O  O34  1  0.673265  0.994492  0.919526  1
  O  O35  1  0.340152  0.017496  0.097125  1
  O  O36  1  0.600385  0.685376  0.639233  1
  O  O37  1  0.596330  0.926052  0.598754  1
  O  O38  1  0.398745  0.791099  0.159837  1
  O  O39  1  0.462388  0.374984  0.110514  1
  O  O40  1  0.741626  0.345015  0.662699  1
  O  O41  1  0.764168  0.176381  0.351471  1
  O  O42  1  0.926946  0.579297  0.416649  1
  O  O43  1  0.895136  0.818326  0.368064  1
  O  O44  1  0.838601  0.512579  0.095733  1
  O  O45  1  0.897434  0.300204  0.177014  1
  O  O46  1  0.966650  0.881048  0.116445  1
