# generated using pymatgen
data_V4O5F7
_symmetry_space_group_name_H-M   'P 1'
_cell_length_a   5.28489977
_cell_length_b   5.34791512
_cell_length_c   9.04865363
_cell_angle_alpha   105.65415138
_cell_angle_beta   90.33468365
_cell_angle_gamma   119.54846522
_symmetry_Int_Tables_number   1
_chemical_formula_structural   V4O5F7
_chemical_formula_sum   'V4 O5 F7'
_cell_volume   211.26311192
_cell_formula_units_Z   1
loop_
 _symmetry_equiv_pos_site_id
 _symmetry_equiv_pos_as_xyz
  1  'x, y, z'
loop_
 _atom_site_type_symbol
 _atom_site_label
 _atom_site_symmetry_multiplicity
 _atom_site_fract_x
 _atom_site_fract_y
 _atom_site_fract_z
 _atom_site_occupancy
  V  V0  1  0.478764  0.734932  0.738766  1
  V  V1  1  0.023900  0.530538  0.488379  1
  V  V2  1  0.474128  0.263954  0.255585  1
  V  V3  1  0.969755  0.011648  0.984298  1
  O  O4  1  0.170225  0.362752  0.881829  1
  O  O5  1  0.682729  0.842247  0.914075  1
  O  O6  1  0.259694  0.406474  0.337321  1
  O  O7  1  0.181162  0.864677  0.376749  1
  O  O8  1  0.320939  0.658601  0.597193  1
  F  F9  1  0.670267  0.322156  0.416157  1
  F  F10  1  0.247550  0.916960  0.843155  1
  F  F11  1  0.831316  0.129395  0.624467  1
  F  F12  1  0.746203  0.576381  0.670106  1
  F  F13  1  0.341007  0.161767  0.082326  1
  F  F14  1  0.844590  0.634673  0.122859  1
  F  F15  1  0.757771  0.082847  0.166735  1
