# generated using pymatgen
data_Li4Co(OF)2
_symmetry_space_group_name_H-M   'P 1'
_cell_length_a   5.13872598
_cell_length_b   5.13872598
_cell_length_c   6.43577978
_cell_angle_alpha   55.44186972
_cell_angle_beta   124.55813028
_cell_angle_gamma   136.48765865
_symmetry_Int_Tables_number   1
_chemical_formula_structural   Li4Co(OF)2
_chemical_formula_sum   'Li4 Co1 O2 F2'
_cell_volume   92.65162668
_cell_formula_units_Z   1
loop_
 _symmetry_equiv_pos_site_id
 _symmetry_equiv_pos_as_xyz
  1  'x, y, z'
loop_
 _atom_site_type_symbol
 _atom_site_label
 _atom_site_symmetry_multiplicity
 _atom_site_fract_x
 _atom_site_fract_y
 _atom_site_fract_z
 _atom_site_occupancy
  Li  Li0  1  0.848531  0.151469  0.463006  1
  Li  Li1  1  0.350349  0.649651  0.158676  1
  Li  Li2  1  0.649651  0.350349  0.841324  1
  Li  Li3  1  0.151469  0.848531  0.536994  1
  Co  Co4  1  0.000000  0.000000  0.000000  1
  O  O5  1  0.913085  0.086915  0.182114  1
  O  O6  1  0.086915  0.913085  0.817886  1
  F  F7  1  0.280681  0.719319  0.379318  1
  F  F8  1  0.719319  0.280681  0.620682  1
