# generated using pymatgen
data_LiMn(PO3)4
_symmetry_space_group_name_H-M   'P 1'
_cell_length_a   6.98609483
_cell_length_b   9.00631294
_cell_length_c   7.20831966
_cell_angle_alpha   90.00000000
_cell_angle_beta   94.82709284
_cell_angle_gamma   90.00000000
_symmetry_Int_Tables_number   1
_chemical_formula_structural   LiMn(PO3)4
_chemical_formula_sum   'Li2 Mn2 P8 O24'
_cell_volume   451.93132504
_cell_formula_units_Z   2
loop_
 _symmetry_equiv_pos_site_id
 _symmetry_equiv_pos_as_xyz
  1  'x, y, z'
loop_
 _atom_site_type_symbol
 _atom_site_label
 _atom_site_symmetry_multiplicity
 _atom_site_fract_x
 _atom_site_fract_y
 _atom_site_fract_z
 _atom_site_occupancy
  Li  Li0  1  0.666860  0.352462  0.306577  1
  Li  Li1  1  0.333140  0.852462  0.693423  1
  Mn  Mn2  1  0.768030  0.926909  0.766806  1
  Mn  Mn3  1  0.231970  0.426909  0.233194  1
  P  P4  1  0.020434  0.369641  0.584088  1
  P  P5  1  0.925074  0.569553  0.908737  1
  P  P6  1  0.603623  0.733333  0.411595  1
  P  P7  1  0.564492  0.386609  0.935685  1
  P  P8  1  0.435508  0.886609  0.064315  1
  P  P9  1  0.396377  0.233333  0.588405  1
  P  P10  1  0.074926  0.069553  0.091263  1
  P  P11  1  0.979566  0.869641  0.415912  1
  O  O12  1  0.979546  0.947951  0.217606  1
  O  O13  1  0.021434  0.543204  0.102408  1
  O  O14  1  0.883478  0.977950  0.542104  1
  O  O15  1  0.929783  0.721596  0.827722  1
  O  O16  1  0.827070  0.737168  0.369129  1
  O  O17  1  0.828300  0.310120  0.521009  1
  O  O18  1  0.699234  0.529855  0.908305  1
  O  O19  1  0.674436  0.267127  0.037168  1
  O  O20  1  0.588437  0.790318  0.611144  1
  O  O21  1  0.505983  0.860152  0.279909  1
  O  O22  1  0.614172  0.940362  0.977251  1
  O  O23  1  0.528674  0.582400  0.364161  1
  O  O24  1  0.471326  0.082400  0.635839  1
  O  O25  1  0.385828  0.440362  0.022749  1
  O  O26  1  0.494017  0.360152  0.720091  1
  O  O27  1  0.411563  0.290318  0.388856  1
  O  O28  1  0.325564  0.767127  0.962832  1
  O  O29  1  0.300766  0.029855  0.091695  1
  O  O30  1  0.171700  0.810120  0.478991  1
  O  O31  1  0.172930  0.237168  0.630871  1
  O  O32  1  0.070217  0.221596  0.172278  1
  O  O33  1  0.116522  0.477950  0.457896  1
  O  O34  1  0.978566  0.043204  0.897592  1
  O  O35  1  0.020454  0.447951  0.782394  1
