# generated using pymatgen
data_V4GeS8
_symmetry_space_group_name_H-M   'P 1'
_cell_length_a   6.85755704
_cell_length_b   6.85755704
_cell_length_c   6.85755704
_cell_angle_alpha   60.00000000
_cell_angle_beta   60.00000000
_cell_angle_gamma   60.00000000
_symmetry_Int_Tables_number   1
_chemical_formula_structural   V4GeS8
_chemical_formula_sum   'V4 Ge1 S8'
_cell_volume   228.03068261
_cell_formula_units_Z   1
loop_
 _symmetry_equiv_pos_site_id
 _symmetry_equiv_pos_as_xyz
  1  'x, y, z'
loop_
 _atom_site_type_symbol
 _atom_site_label
 _atom_site_symmetry_multiplicity
 _atom_site_fract_x
 _atom_site_fract_y
 _atom_site_fract_z
 _atom_site_occupancy
  V  V0  1  0.437775  0.854075  0.854075  1
  V  V1  1  0.854075  0.854075  0.437775  1
  V  V2  1  0.854075  0.437775  0.854075  1
  V  V3  1  0.854075  0.854075  0.854075  1
  Ge  Ge4  1  0.250000  0.250000  0.250000  1
  S  S5  1  0.620416  0.620416  0.620416  1
  S  S6  1  0.620416  0.138751  0.620416  1
  S  S7  1  0.113343  0.113343  0.113343  1
  S  S8  1  0.113343  0.659971  0.113343  1
  S  S9  1  0.620416  0.620416  0.138751  1
  S  S10  1  0.138751  0.620416  0.620416  1
  S  S11  1  0.113343  0.113343  0.659971  1
  S  S12  1  0.659971  0.113343  0.113343  1
