# generated using pymatgen
data_CdSnO3
_symmetry_space_group_name_H-M   'P 1'
_cell_length_a   5.55403435
_cell_length_b   5.67787314
_cell_length_c   8.03568794
_cell_angle_alpha   90.00000000
_cell_angle_beta   90.00000000
_cell_angle_gamma   90.00000000
_symmetry_Int_Tables_number   1
_chemical_formula_structural   CdSnO3
_chemical_formula_sum   'Cd4 Sn4 O12'
_cell_volume   253.40624248
_cell_formula_units_Z   4
loop_
 _symmetry_equiv_pos_site_id
 _symmetry_equiv_pos_as_xyz
  1  'x, y, z'
loop_
 _atom_site_type_symbol
 _atom_site_label
 _atom_site_symmetry_multiplicity
 _atom_site_fract_x
 _atom_site_fract_y
 _atom_site_fract_z
 _atom_site_occupancy
  Cd  Cd0  1  0.012110  0.952657  0.750000  1
  Cd  Cd1  1  0.487890  0.452657  0.750000  1
  Cd  Cd2  1  0.512110  0.547343  0.250000  1
  Cd  Cd3  1  0.987890  0.047343  0.250000  1
  Sn  Sn4  1  0.000000  0.500000  0.000000  1
  Sn  Sn5  1  0.000000  0.500000  0.500000  1
  Sn  Sn6  1  0.500000  0.000000  0.000000  1
  Sn  Sn7  1  0.500000  0.000000  0.500000  1
  O  O8  1  0.113545  0.449254  0.250000  1
  O  O9  1  0.194195  0.197268  0.561222  1
  O  O10  1  0.194195  0.197268  0.938778  1
  O  O11  1  0.305805  0.697268  0.561222  1
  O  O12  1  0.305805  0.697268  0.938778  1
  O  O13  1  0.386455  0.949254  0.250000  1
  O  O14  1  0.613545  0.050746  0.750000  1
  O  O15  1  0.694195  0.302732  0.061222  1
  O  O16  1  0.694195  0.302732  0.438778  1
  O  O17  1  0.805805  0.802732  0.061222  1
  O  O18  1  0.805805  0.802732  0.438778  1
  O  O19  1  0.886455  0.550746  0.750000  1
