# generated using pymatgen
data_Pr11In9Ni4
_symmetry_space_group_name_H-M   'P 1'
_cell_length_a   13.50971057
_cell_length_b   13.50971057
_cell_length_c   3.78843919
_cell_angle_alpha   90.00000000
_cell_angle_beta   90.00000000
_cell_angle_gamma   112.57477307
_symmetry_Int_Tables_number   1
_chemical_formula_structural   Pr11In9Ni4
_chemical_formula_sum   'Pr11 In9 Ni4'
_cell_volume   638.45833158
_cell_formula_units_Z   1
loop_
 _symmetry_equiv_pos_site_id
 _symmetry_equiv_pos_as_xyz
  1  'x, y, z'
loop_
 _atom_site_type_symbol
 _atom_site_label
 _atom_site_symmetry_multiplicity
 _atom_site_fract_x
 _atom_site_fract_y
 _atom_site_fract_z
 _atom_site_occupancy
  Pr  Pr0  1  0.500000  0.500000  0.500000  1
  Pr  Pr1  1  0.812819  0.812819  0.500000  1
  Pr  Pr2  1  0.187181  0.187181  0.500000  1
  Pr  Pr3  1  0.577428  0.916330  0.500000  1
  Pr  Pr4  1  0.422572  0.083670  0.500000  1
  Pr  Pr5  1  0.916330  0.577428  0.500000  1
  Pr  Pr6  1  0.083670  0.422572  0.500000  1
  Pr  Pr7  1  0.125722  0.874278  0.500000  1
  Pr  Pr8  1  0.874278  0.125722  0.500000  1
  Pr  Pr9  1  0.338871  0.661129  0.500000  1
  Pr  Pr10  1  0.661129  0.338871  0.500000  1
  In  In11  1  0.337821  0.867002  1.000000  1
  In  In12  1  0.662179  0.132998  1.000000  1
  In  In13  1  0.867002  0.337821  1.000000  1
  In  In14  1  0.132998  0.662179  1.000000  1
  In  In15  1  0.581427  0.720182  1.000000  1
  In  In16  1  0.418573  0.279818  0.000000  1
  In  In17  1  0.720182  0.581427  0.000000  1
  In  In18  1  0.279818  0.418573  0.000000  1
  In  In19  1  0.000000  0.000000  0.000000  1
  Ni  Ni20  1  0.745438  0.948423  1.000000  1
  Ni  Ni21  1  0.254562  0.051577  0.000000  1
  Ni  Ni22  1  0.948423  0.745438  1.000000  1
  Ni  Ni23  1  0.051577  0.254562  0.000000  1
