# generated using pymatgen
data_ReH8(I3N)2
_symmetry_space_group_name_H-M   'P 1'
_cell_length_a   7.90872792
_cell_length_b   7.90872792
_cell_length_c   12.17277889
_cell_angle_alpha   90.00000000
_cell_angle_beta   90.00000000
_cell_angle_gamma   90.00000000
_symmetry_Int_Tables_number   1
_chemical_formula_structural   ReH8(I3N)2
_chemical_formula_sum   'Re2 H16 I12 N4'
_cell_volume   761.38269784
_cell_formula_units_Z   2
loop_
 _symmetry_equiv_pos_site_id
 _symmetry_equiv_pos_as_xyz
  1  'x, y, z'
loop_
 _atom_site_type_symbol
 _atom_site_label
 _atom_site_symmetry_multiplicity
 _atom_site_fract_x
 _atom_site_fract_y
 _atom_site_fract_z
 _atom_site_occupancy
  Re  Re0  1  0.000000  0.000000  0.500000  1
  Re  Re1  1  0.500000  0.500000  0.000000  1
  H  H2  1  0.001350  0.606694  0.299242  1
  H  H3  1  0.001350  0.606694  0.700758  1
  H  H4  1  0.106694  0.501350  0.200758  1
  H  H5  1  0.106694  0.501350  0.799242  1
  H  H6  1  0.393306  0.001350  0.299242  1
  H  H7  1  0.393306  0.001350  0.700758  1
  H  H8  1  0.498650  0.106694  0.200758  1
  H  H9  1  0.498650  0.106694  0.799242  1
  H  H10  1  0.501350  0.893306  0.200758  1
  H  H11  1  0.501350  0.893306  0.799242  1
  H  H12  1  0.606694  0.998650  0.299242  1
  H  H13  1  0.606694  0.998650  0.700758  1
  H  H14  1  0.893306  0.498650  0.200758  1
  H  H15  1  0.893306  0.498650  0.799242  1
  H  H16  1  0.998650  0.393306  0.299242  1
  H  H17  1  0.998650  0.393306  0.700758  1
  I  I18  1  0.000000  0.000000  0.272989  1
  I  I19  1  0.000000  0.000000  0.727011  1
  I  I20  1  0.196421  0.713527  0.500000  1
  I  I21  1  0.213527  0.696421  0.000000  1
  I  I22  1  0.286473  0.196421  0.500000  1
  I  I23  1  0.303579  0.213527  0.000000  1
  I  I24  1  0.500000  0.500000  0.227011  1
  I  I25  1  0.500000  0.500000  0.772989  1
  I  I26  1  0.696421  0.786473  0.000000  1
  I  I27  1  0.713527  0.803579  0.500000  1
  I  I28  1  0.786473  0.303579  0.000000  1
  I  I29  1  0.803579  0.286473  0.500000  1
  N  N30  1  0.000000  0.500000  0.250000  1
  N  N31  1  0.000000  0.500000  0.750000  1
  N  N32  1  0.500000  0.000000  0.250000  1
  N  N33  1  0.500000  0.000000  0.750000  1
