# generated using pymatgen
data_La2Ti2O7
_symmetry_space_group_name_H-M   'P 1'
_cell_length_a   13.07035271
_cell_length_b   13.07035271
_cell_length_c   5.67660575
_cell_angle_alpha   90.00000000
_cell_angle_beta   90.00000000
_cell_angle_gamma   162.82112099
_symmetry_Int_Tables_number   1
_chemical_formula_structural   La2Ti2O7
_chemical_formula_sum   'La4 Ti4 O14'
_cell_volume   286.42371672
_cell_formula_units_Z   2
loop_
 _symmetry_equiv_pos_site_id
 _symmetry_equiv_pos_as_xyz
  1  'x, y, z'
loop_
 _atom_site_type_symbol
 _atom_site_label
 _atom_site_symmetry_multiplicity
 _atom_site_fract_x
 _atom_site_fract_y
 _atom_site_fract_z
 _atom_site_occupancy
  La  La0  1  0.702921  0.297079  0.348746  1
  La  La1  1  0.297079  0.702921  0.848746  1
  La  La2  1  0.550818  0.449182  0.767470  1
  La  La3  1  0.449182  0.550818  0.267470  1
  Ti  Ti4  1  0.162687  0.837313  0.802035  1
  Ti  Ti5  1  0.837313  0.162687  0.302035  1
  Ti  Ti6  1  0.062445  0.937555  0.261712  1
  Ti  Ti7  1  0.937555  0.062445  0.761712  1
  O  O8  1  0.220017  0.779983  0.589782  1
  O  O9  1  0.779983  0.220017  0.089782  1
  O  O10  1  0.119558  0.880442  0.436003  1
  O  O11  1  0.880442  0.119558  0.936003  1
  O  O12  1  0.652644  0.347356  0.751474  1
  O  O13  1  0.347356  0.652644  0.251474  1
  O  O14  1  0.549462  0.450538  0.219877  1
  O  O15  1  0.450538  0.549462  0.719877  1
  O  O16  1  0.013332  0.986668  0.517214  1
  O  O17  1  0.986668  0.013332  0.017214  1
  O  O18  1  0.908515  0.091485  0.435039  1
  O  O19  1  0.091485  0.908515  0.935039  1
  O  O20  1  0.798551  0.201449  0.566248  1
  O  O21  1  0.201449  0.798551  0.066248  1
