# generated using pymatgen
data_Li4V7O9F7
_symmetry_space_group_name_H-M   'P 1'
_cell_length_a   6.02532325
_cell_length_b   6.02532325
_cell_length_c   10.62887299
_cell_angle_alpha   73.19515431
_cell_angle_beta   106.80484569
_cell_angle_gamma   120.04644113
_symmetry_Int_Tables_number   1
_chemical_formula_structural   Li4V7O9F7
_chemical_formula_sum   'Li4 V7 O9 F7'
_cell_volume   314.86850580
_cell_formula_units_Z   1
loop_
 _symmetry_equiv_pos_site_id
 _symmetry_equiv_pos_as_xyz
  1  'x, y, z'
loop_
 _atom_site_type_symbol
 _atom_site_label
 _atom_site_symmetry_multiplicity
 _atom_site_fract_x
 _atom_site_fract_y
 _atom_site_fract_z
 _atom_site_occupancy
  Li  Li0  1  0.994115  0.005885  0.009636  1
  Li  Li1  1  0.384536  0.615464  0.118258  1
  Li  Li2  1  0.876925  0.123075  0.621814  1
  Li  Li3  1  0.490427  0.509573  0.508599  1
  V  V4  1  0.704029  0.295971  0.072880  1
  V  V5  1  0.940784  0.584865  0.307665  1
  V  V6  1  0.943384  0.560092  0.806892  1
  V  V7  1  0.415135  0.059216  0.307665  1
  V  V8  1  0.428589  0.571411  0.801062  1
  V  V9  1  0.186663  0.813337  0.564110  1
  V  V10  1  0.439908  0.056616  0.806892  1
  O  O11  1  0.571618  0.428382  0.714903  1
  O  O12  1  0.789498  0.210502  0.935498  1
  O  O13  1  0.286038  0.713962  0.431777  1
  O  O14  1  0.589702  0.410298  0.188518  1
  O  O15  1  0.083436  0.916564  0.197709  1
  O  O16  1  0.080741  0.466286  0.688872  1
  O  O17  1  0.533714  0.919259  0.688872  1
  O  O18  1  0.081088  0.918912  0.692394  1
  O  O19  1  0.310218  0.689782  0.916491  1
  F  F20  1  0.822871  0.679641  0.440865  1
  F  F21  1  0.557974  0.946670  0.186931  1
  F  F22  1  0.789281  0.210719  0.422449  1
  F  F23  1  0.336973  0.198848  0.939477  1
  F  F24  1  0.801152  0.663027  0.939477  1
  F  F25  1  0.320359  0.177129  0.440865  1
  F  F26  1  0.053330  0.442026  0.186931  1
