# generated using pymatgen
data_Cr3B4
_symmetry_space_group_name_H-M   'P 1'
_cell_length_a   6.84325189
_cell_length_b   6.84325189
_cell_length_c   6.84325189
_cell_angle_alpha   155.37464338
_cell_angle_beta   155.16683431
_cell_angle_gamma   35.25548320
_symmetry_Int_Tables_number   1
_chemical_formula_structural   Cr3B4
_chemical_formula_sum   'Cr3 B4'
_cell_volume   56.01669315
_cell_formula_units_Z   1
loop_
 _symmetry_equiv_pos_site_id
 _symmetry_equiv_pos_as_xyz
  1  'x, y, z'
loop_
 _atom_site_type_symbol
 _atom_site_label
 _atom_site_symmetry_multiplicity
 _atom_site_fract_x
 _atom_site_fract_y
 _atom_site_fract_z
 _atom_site_occupancy
  Cr  Cr0  1  0.314009  0.814009  0.500000  1
  Cr  Cr1  1  0.685991  0.185991  0.500000  1
  Cr  Cr2  1  0.000000  0.000000  0.000000  1
  B  B3  1  0.566378  0.566378  0.000000  1
  B  B4  1  0.433622  0.433622  0.000000  1
  B  B5  1  0.139821  0.639821  0.500000  1
  B  B6  1  0.860179  0.360179  0.500000  1
