# generated using pymatgen
data_AsS2NF6
_symmetry_space_group_name_H-M   'P 1'
_cell_length_a   5.86867997
_cell_length_b   5.86867997
_cell_length_c   5.45920714
_cell_angle_alpha   88.00347227
_cell_angle_beta   91.99652773
_cell_angle_gamma   109.80270974
_symmetry_Int_Tables_number   1
_chemical_formula_structural   AsS2NF6
_chemical_formula_sum   'As1 S2 N1 F6'
_cell_volume   176.74353278
_cell_formula_units_Z   1
loop_
 _symmetry_equiv_pos_site_id
 _symmetry_equiv_pos_as_xyz
  1  'x, y, z'
loop_
 _atom_site_type_symbol
 _atom_site_label
 _atom_site_symmetry_multiplicity
 _atom_site_fract_x
 _atom_site_fract_y
 _atom_site_fract_z
 _atom_site_occupancy
  As  As0  1  0.000000  0.000000  0.000000  1
  S  S1  1  0.641514  0.358486  0.624750  1
  S  S2  1  0.358486  0.641514  0.375250  1
  N  N3  1  0.500000  0.500000  0.500000  1
  F  F4  1  0.706592  0.920902  0.858307  1
  F  F5  1  0.293408  0.079098  0.141693  1
  F  F6  1  0.079098  0.293408  0.858307  1
  F  F7  1  0.107322  0.892678  0.744018  1
  F  F8  1  0.892678  0.107322  0.255982  1
  F  F9  1  0.920902  0.706592  0.141693  1
