# generated using pymatgen
data_Li2Mn3(BO3)3
_symmetry_space_group_name_H-M   'P 1'
_cell_length_a   6.34770797
_cell_length_b   8.26135162
_cell_length_c   8.57343817
_cell_angle_alpha   117.33710499
_cell_angle_beta   107.57478694
_cell_angle_gamma   91.19952654
_symmetry_Int_Tables_number   1
_chemical_formula_structural   Li2Mn3(BO3)3
_chemical_formula_sum   'Li4 Mn6 B6 O18'
_cell_volume   373.92134105
_cell_formula_units_Z   2
loop_
 _symmetry_equiv_pos_site_id
 _symmetry_equiv_pos_as_xyz
  1  'x, y, z'
loop_
 _atom_site_type_symbol
 _atom_site_label
 _atom_site_symmetry_multiplicity
 _atom_site_fract_x
 _atom_site_fract_y
 _atom_site_fract_z
 _atom_site_occupancy
  Li  Li0  1  0.102144  0.020932  0.723130  1
  Li  Li1  1  0.615184  0.029374  0.724654  1
  Li  Li2  1  0.386903  0.273107  0.297031  1
  Li  Li3  1  0.240909  0.699785  0.982894  1
  Mn  Mn4  1  0.333545  0.629318  0.621806  1
  Mn  Mn5  1  0.835080  0.629236  0.626191  1
  Mn  Mn6  1  0.987103  0.373562  0.026874  1
  Mn  Mn7  1  0.495564  0.375493  0.019054  1
  Mn  Mn8  1  0.686815  0.991093  0.336962  1
  Mn  Mn9  1  0.187963  0.989128  0.369127  1
  B  B10  1  0.579693  0.321029  0.656550  1
  B  B11  1  0.103955  0.339916  0.680300  1
  B  B12  1  0.412598  0.668385  0.343292  1
  B  B13  1  0.922688  0.685314  0.340536  1
  B  B14  1  0.476049  0.996496  0.978997  1
  B  B15  1  0.002208  0.989450  0.999273  1
  O  O16  1  0.419742  0.085394  0.872475  1
  O  O17  1  0.931982  0.085172  0.898835  1
  O  O18  1  0.500001  0.129258  0.531421  1
  O  O19  1  0.028270  0.149645  0.564702  1
  O  O20  1  0.674987  0.375828  0.841780  1
  O  O21  1  0.183681  0.418498  0.873431  1
  O  O22  1  0.561723  0.100926  0.170807  1
  O  O23  1  0.107261  0.090938  0.193503  1
  O  O24  1  0.557774  0.437243  0.578339  1
  O  O25  1  0.097113  0.457342  0.603453  1
  O  O26  1  0.440917  0.803600  0.893177  1
  O  O27  1  0.979840  0.800457  0.905955  1
  O  O28  1  0.323141  0.480086  0.241790  1
  O  O29  1  0.811728  0.505119  0.228051  1
  O  O30  1  0.043447  0.753268  0.530051  1
  O  O31  1  0.524416  0.749606  0.539215  1
  O  O32  1  0.389524  0.778576  0.259273  1
  O  O33  1  0.914238  0.803739  0.263445  1
