# generated using pymatgen
data_KNa2BO3
_symmetry_space_group_name_H-M   'P 1'
_cell_length_a   5.64413843
_cell_length_b   5.65161409
_cell_length_c   6.10632802
_cell_angle_alpha   90.00000000
_cell_angle_beta   90.00000000
_cell_angle_gamma   90.00000000
_symmetry_Int_Tables_number   1
_chemical_formula_structural   KNa2BO3
_chemical_formula_sum   'K2 Na4 B2 O6'
_cell_volume   194.78265719
_cell_formula_units_Z   2
loop_
 _symmetry_equiv_pos_site_id
 _symmetry_equiv_pos_as_xyz
  1  'x, y, z'
loop_
 _atom_site_type_symbol
 _atom_site_label
 _atom_site_symmetry_multiplicity
 _atom_site_fract_x
 _atom_site_fract_y
 _atom_site_fract_z
 _atom_site_occupancy
  K  K0  1  0.924034  0.500000  0.500000  1
  K  K1  1  0.075966  0.000000  0.000000  1
  Na  Na2  1  0.373298  0.500000  0.770648  1
  Na  Na3  1  0.373298  0.500000  0.229352  1
  Na  Na4  1  0.626702  0.000000  0.729352  1
  Na  Na5  1  0.626702  0.000000  0.270648  1
  B  B6  1  0.795942  0.500000  0.000000  1
  B  B7  1  0.204058  0.000000  0.500000  1
  O  O8  1  0.665781  0.287856  0.000000  1
  O  O9  1  0.334219  0.212144  0.500000  1
  O  O10  1  0.042386  0.500000  0.000000  1
  O  O11  1  0.957614  0.000000  0.500000  1
  O  O12  1  0.334219  0.787856  0.500000  1
  O  O13  1  0.665781  0.712144  0.000000  1
