# generated using pymatgen
data_Li2Cr5(Si2O7)2
_symmetry_space_group_name_H-M   'P 1'
_cell_length_a   5.64204487
_cell_length_b   7.62956529
_cell_length_c   8.02731733
_cell_angle_alpha   113.85364715
_cell_angle_beta   91.00262498
_cell_angle_gamma   106.02195142
_symmetry_Int_Tables_number   1
_chemical_formula_structural   Li2Cr5(Si2O7)2
_chemical_formula_sum   'Li2 Cr5 Si4 O14'
_cell_volume   300.46030134
_cell_formula_units_Z   1
loop_
 _symmetry_equiv_pos_site_id
 _symmetry_equiv_pos_as_xyz
  1  'x, y, z'
loop_
 _atom_site_type_symbol
 _atom_site_label
 _atom_site_symmetry_multiplicity
 _atom_site_fract_x
 _atom_site_fract_y
 _atom_site_fract_z
 _atom_site_occupancy
  Li  Li0  1  0.228023  0.106772  0.455756  1
  Li  Li1  1  0.771977  0.893228  0.544244  1
  Cr  Cr2  1  0.000000  0.000000  0.000000  1
  Cr  Cr3  1  0.077938  0.382046  0.811986  1
  Cr  Cr4  1  0.662369  0.573589  0.709097  1
  Cr  Cr5  1  0.337631  0.426411  0.290903  1
  Cr  Cr6  1  0.922062  0.617954  0.188014  1
  Si  Si7  1  0.491596  0.225436  0.855901  1
  Si  Si8  1  0.794078  0.207144  0.395298  1
  Si  Si9  1  0.205922  0.792856  0.604702  1
  Si  Si10  1  0.508404  0.774564  0.144099  1
  O  O11  1  0.884006  0.167431  0.568098  1
  O  O12  1  0.778818  0.352026  0.953040  1
  O  O13  1  0.537467  0.014425  0.272950  1
  O  O14  1  0.403536  0.322960  0.723158  1
  O  O15  1  0.026663  0.188564  0.270729  1
  O  O16  1  0.704345  0.404646  0.444096  1
  O  O17  1  0.303030  0.232264  0.010922  1
  O  O18  1  0.696970  0.767736  0.989078  1
  O  O19  1  0.295655  0.595354  0.555904  1
  O  O20  1  0.973337  0.811436  0.729271  1
  O  O21  1  0.596464  0.677040  0.276842  1
  O  O22  1  0.462533  0.985575  0.727050  1
  O  O23  1  0.221182  0.647974  0.046960  1
  O  O24  1  0.115994  0.832569  0.431902  1
