# generated using pymatgen
data_NbO2
_symmetry_space_group_name_H-M   'P 1'
_cell_length_a   10.28562131
_cell_length_b   10.28562131
_cell_length_c   10.28562131
_cell_angle_alpha   95.02680355
_cell_angle_beta   95.02680355
_cell_angle_gamma   145.56380923
_symmetry_Int_Tables_number   1
_chemical_formula_structural   NbO2
_chemical_formula_sum   'Nb16 O32'
_cell_volume   587.76334609
_cell_formula_units_Z   16
loop_
 _symmetry_equiv_pos_site_id
 _symmetry_equiv_pos_as_xyz
  1  'x, y, z'
loop_
 _atom_site_type_symbol
 _atom_site_label
 _atom_site_symmetry_multiplicity
 _atom_site_fract_x
 _atom_site_fract_y
 _atom_site_fract_z
 _atom_site_occupancy
  Nb  Nb0  1  0.469738  0.978994  0.759252  1
  Nb  Nb1  1  0.960487  0.219738  0.990745  1
  Nb  Nb2  1  0.228994  0.969742  0.009255  1
  Nb  Nb3  1  0.219742  0.710487  0.240748  1
  Nb  Nb4  1  0.780262  0.771006  0.740748  1
  Nb  Nb5  1  0.289513  0.530262  0.509255  1
  Nb  Nb6  1  0.021006  0.780258  0.490745  1
  Nb  Nb7  1  0.030258  0.039513  0.259252  1
  Nb  Nb8  1  0.026726  0.514057  0.739326  1
  Nb  Nb9  1  0.537400  0.776726  0.012669  1
  Nb  Nb10  1  0.764057  0.524731  0.987331  1
  Nb  Nb11  1  0.774731  0.287400  0.260674  1
  Nb  Nb12  1  0.223274  0.235943  0.760674  1
  Nb  Nb13  1  0.712600  0.973274  0.487331  1
  Nb  Nb14  1  0.485943  0.225269  0.512669  1
  Nb  Nb15  1  0.475269  0.462600  0.239326  1
  O  O16  1  0.992807  0.630860  0.888699  1
  O  O17  1  0.354108  0.742807  0.861947  1
  O  O18  1  0.880860  0.492161  0.138053  1
  O  O19  1  0.742161  0.104108  0.111301  1
  O  O20  1  0.257193  0.119140  0.611301  1
  O  O21  1  0.895892  0.007193  0.638053  1
  O  O22  1  0.369140  0.257839  0.361947  1
  O  O23  1  0.507839  0.645892  0.388699  1
  O  O24  1  0.501364  0.150163  0.898679  1
  O  O25  1  0.852685  0.251364  0.851201  1
  O  O26  1  0.400163  0.001484  0.148799  1
  O  O27  1  0.251484  0.602685  0.101321  1
  O  O28  1  0.748636  0.599837  0.601321  1
  O  O29  1  0.397315  0.498636  0.648799  1
  O  O30  1  0.849837  0.748516  0.351201  1
  O  O31  1  0.998516  0.147315  0.398679  1
  O  O32  1  0.986016  0.848789  0.110627  1
  O  O33  1  0.125388  0.736016  0.637226  1
  O  O34  1  0.098789  0.488162  0.362774  1
  O  O35  1  0.738162  0.875388  0.889373  1
  O  O36  1  0.263984  0.901211  0.389373  1
  O  O37  1  0.124612  0.013984  0.862774  1
  O  O38  1  0.151211  0.261838  0.137226  1
  O  O39  1  0.511838  0.874612  0.610627  1
  O  O40  1  0.505420  0.352695  0.099467  1
  O  O41  1  0.655953  0.255420  0.652725  1
  O  O42  1  0.602695  0.003229  0.347275  1
  O  O43  1  0.253229  0.405953  0.900533  1
  O  O44  1  0.744580  0.397305  0.400533  1
  O  O45  1  0.594047  0.494580  0.847275  1
  O  O46  1  0.647305  0.746771  0.152725  1
  O  O47  1  0.996771  0.344047  0.599467  1
