# generated using pymatgen
data_Cs2SiP2
_symmetry_space_group_name_H-M   'P 1'
_cell_length_a   8.71950554
_cell_length_b   8.71950554
_cell_length_c   8.71950554
_cell_angle_alpha   138.12974815
_cell_angle_beta   127.76409008
_cell_angle_gamma   69.07964321
_symmetry_Int_Tables_number   1
_chemical_formula_structural   Cs2SiP2
_chemical_formula_sum   'Cs4 Si2 P4'
_cell_volume   343.58798958
_cell_formula_units_Z   2
loop_
 _symmetry_equiv_pos_site_id
 _symmetry_equiv_pos_as_xyz
  1  'x, y, z'
loop_
 _atom_site_type_symbol
 _atom_site_label
 _atom_site_symmetry_multiplicity
 _atom_site_fract_x
 _atom_site_fract_y
 _atom_site_fract_z
 _atom_site_occupancy
  Cs  Cs0  1  0.974455  0.646331  0.328123  1
  Cs  Cs1  1  0.025545  0.353669  0.671877  1
  Cs  Cs2  1  0.681792  0.853669  0.828123  1
  Cs  Cs3  1  0.318208  0.146331  0.171877  1
  Si  Si4  1  0.500000  0.250000  0.750000  1
  Si  Si5  1  0.500000  0.750000  0.250000  1
  P  P6  1  0.734515  0.087236  0.647279  1
  P  P7  1  0.560043  0.412764  0.147279  1
  P  P8  1  0.439957  0.587236  0.852721  1
  P  P9  1  0.265485  0.912764  0.352721  1
