# generated using pymatgen
data_Mn6O7F5
_symmetry_space_group_name_H-M   'P 1'
_cell_length_a   4.67392691
_cell_length_b   5.69043474
_cell_length_c   15.19510299
_cell_angle_alpha   89.73003202
_cell_angle_beta   89.86500333
_cell_angle_gamma   85.61255721
_symmetry_Int_Tables_number   1
_chemical_formula_structural   Mn6O7F5
_chemical_formula_sum   'Mn12 O14 F10'
_cell_volume   402.94963836
_cell_formula_units_Z   2
loop_
 _symmetry_equiv_pos_site_id
 _symmetry_equiv_pos_as_xyz
  1  'x, y, z'
loop_
 _atom_site_type_symbol
 _atom_site_label
 _atom_site_symmetry_multiplicity
 _atom_site_fract_x
 _atom_site_fract_y
 _atom_site_fract_z
 _atom_site_occupancy
  Mn  Mn0  1  0.981957  0.831095  0.421718  1
  Mn  Mn1  1  0.974198  0.146414  0.245212  1
  Mn  Mn2  1  0.013351  0.850711  0.083606  1
  Mn  Mn3  1  0.980134  0.831533  0.747670  1
  Mn  Mn4  1  0.978788  0.158029  0.583179  1
  Mn  Mn5  1  0.966763  0.144169  0.912232  1
  Mn  Mn6  1  0.531699  0.657609  0.590376  1
  Mn  Mn7  1  0.532647  0.658414  0.923456  1
  Mn  Mn8  1  0.467150  0.648193  0.255366  1
  Mn  Mn9  1  0.517886  0.351172  0.078395  1
  Mn  Mn10  1  0.522129  0.360004  0.416294  1
  Mn  Mn11  1  0.512960  0.368986  0.751910  1
  O  O12  1  0.789061  0.888915  0.638288  1
  O  O13  1  0.793972  0.891209  0.972289  1
  O  O14  1  0.771216  0.115220  0.134937  1
  O  O15  1  0.775291  0.112881  0.473336  1
  O  O16  1  0.763272  0.111844  0.805436  1
  O  O17  1  0.715682  0.386111  0.304472  1
  O  O18  1  0.727848  0.608271  0.480291  1
  O  O19  1  0.730433  0.391697  0.645427  1
  O  O20  1  0.714961  0.603493  0.811126  1
  O  O21  1  0.740452  0.384529  0.972611  1
  O  O22  1  0.295439  0.622766  0.026581  1
  O  O23  1  0.260276  0.604046  0.364233  1
  O  O24  1  0.282448  0.621729  0.693381  1
  O  O25  1  0.217257  0.885095  0.194762  1
  F  F26  1  0.743508  0.886499  0.309797  1
  F  F27  1  0.725734  0.619505  0.149943  1
  F  F28  1  0.264305  0.378433  0.182955  1
  F  F29  1  0.270149  0.377172  0.525983  1
  F  F30  1  0.252200  0.370279  0.856871  1
  F  F31  1  0.258313  0.886750  0.531018  1
  F  F32  1  0.215121  0.108106  0.356881  1
  F  F33  1  0.234957  0.126332  0.011475  1
  F  F34  1  0.233901  0.875132  0.856674  1
  F  F35  1  0.244544  0.137655  0.691816  1
