# generated using pymatgen
data_LiCrPH2O5
_symmetry_space_group_name_H-M   'P 1'
_cell_length_a   5.04581480
_cell_length_b   8.29671525
_cell_length_c   10.54580303
_cell_angle_alpha   90.00000000
_cell_angle_beta   90.00000000
_cell_angle_gamma   90.00000000
_symmetry_Int_Tables_number   1
_chemical_formula_structural   LiCrPH2O5
_chemical_formula_sum   'Li4 Cr4 P4 H8 O20'
_cell_volume   441.48621408
_cell_formula_units_Z   4
loop_
 _symmetry_equiv_pos_site_id
 _symmetry_equiv_pos_as_xyz
  1  'x, y, z'
loop_
 _atom_site_type_symbol
 _atom_site_label
 _atom_site_symmetry_multiplicity
 _atom_site_fract_x
 _atom_site_fract_y
 _atom_site_fract_z
 _atom_site_occupancy
  Li  Li0  1  0.285906  0.192099  0.193021  1
  Li  Li1  1  0.785906  0.692099  0.306979  1
  Li  Li2  1  0.285906  0.307901  0.693021  1
  Li  Li3  1  0.785906  0.807901  0.806979  1
  Cr  Cr4  1  0.735169  0.394032  0.102342  1
  Cr  Cr5  1  0.235169  0.894032  0.397658  1
  Cr  Cr6  1  0.735169  0.105968  0.602342  1
  Cr  Cr7  1  0.235169  0.605968  0.897658  1
  P  P8  1  0.306708  0.585207  0.188509  1
  P  P9  1  0.806708  0.085207  0.311491  1
  P  P10  1  0.306708  0.914793  0.688509  1
  P  P11  1  0.806708  0.414793  0.811491  1
  H  H12  1  0.666834  0.967779  0.995934  1
  H  H13  1  0.833343  0.826051  0.049781  1
  H  H14  1  0.333343  0.326051  0.450219  1
  H  H15  1  0.166834  0.467779  0.504066  1
  H  H16  1  0.666834  0.532221  0.495934  1
  H  H17  1  0.833343  0.673949  0.549781  1
  H  H18  1  0.333343  0.173949  0.950219  1
  H  H19  1  0.166834  0.032221  0.004066  1
  O  O20  1  0.334235  0.092083  0.017971  1
  O  O21  1  0.460091  0.626390  0.061728  1
  O  O22  1  0.409753  0.410887  0.218719  1
  O  O23  1  0.005128  0.591784  0.170335  1
  O  O24  1  0.896563  0.199434  0.203397  1
  O  O25  1  0.396563  0.699434  0.296603  1
  O  O26  1  0.505128  0.091784  0.329665  1
  O  O27  1  0.909753  0.910887  0.281281  1
  O  O28  1  0.960091  0.126390  0.438272  1
  O  O29  1  0.834235  0.592083  0.482029  1
  O  O30  1  0.334235  0.407917  0.517971  1
  O  O31  1  0.460091  0.873610  0.561728  1
  O  O32  1  0.409753  0.089113  0.718719  1
  O  O33  1  0.005128  0.908216  0.670335  1
  O  O34  1  0.896563  0.300566  0.703397  1
  O  O35  1  0.396563  0.800566  0.796603  1
  O  O36  1  0.505128  0.408216  0.829665  1
  O  O37  1  0.909753  0.589113  0.781281  1
  O  O38  1  0.960091  0.373610  0.938272  1
  O  O39  1  0.834235  0.907917  0.982029  1
