# generated using pymatgen
data_Li2CuP3(HO5)2
_symmetry_space_group_name_H-M   'P 1'
_cell_length_a   7.32518004
_cell_length_b   7.64629765
_cell_length_c   8.23532135
_cell_angle_alpha   71.38916951
_cell_angle_beta   73.79031981
_cell_angle_gamma   71.49767739
_symmetry_Int_Tables_number   1
_chemical_formula_structural   Li2CuP3(HO5)2
_chemical_formula_sum   'Li4 Cu2 P6 H4 O20'
_cell_volume   406.34778682
_cell_formula_units_Z   2
loop_
 _symmetry_equiv_pos_site_id
 _symmetry_equiv_pos_as_xyz
  1  'x, y, z'
loop_
 _atom_site_type_symbol
 _atom_site_label
 _atom_site_symmetry_multiplicity
 _atom_site_fract_x
 _atom_site_fract_y
 _atom_site_fract_z
 _atom_site_occupancy
  Li  Li0  1  0.320080  0.402131  0.989099  1
  Li  Li1  1  0.417299  0.664673  0.626598  1
  Li  Li2  1  0.582701  0.335327  0.373402  1
  Li  Li3  1  0.679920  0.597869  0.010901  1
  Cu  Cu4  1  0.712594  0.937527  0.638576  1
  Cu  Cu5  1  0.287406  0.062473  0.361424  1
  P  P6  1  0.295553  0.888489  0.914545  1
  P  P7  1  0.751634  0.290419  0.718290  1
  P  P8  1  0.188115  0.276922  0.670621  1
  P  P9  1  0.811885  0.723078  0.329379  1
  P  P10  1  0.248366  0.709581  0.281710  1
  P  P11  1  0.704447  0.111511  0.085455  1
  H  H12  1  0.993428  0.758911  0.836766  1
  H  H13  1  0.999750  0.622216  0.734748  1
  H  H14  1  0.000250  0.377784  0.265252  1
  H  H15  1  0.006572  0.241089  0.163234  1
  O  O16  1  0.903173  0.708835  0.803449  1
  O  O17  1  0.513191  0.859298  0.881527  1
  O  O18  1  0.794242  0.112159  0.882235  1
  O  O19  1  0.224585  0.753855  0.860377  1
  O  O20  1  0.596170  0.452484  0.780323  1
  O  O21  1  0.959614  0.346345  0.651398  1
  O  O22  1  0.181053  0.106330  0.845549  1
  O  O23  1  0.681521  0.797198  0.482505  1
  O  O24  1  0.232394  0.436380  0.709717  1
  O  O25  1  0.717587  0.215818  0.582920  1
  O  O26  1  0.282413  0.784182  0.417080  1
  O  O27  1  0.767606  0.563620  0.290283  1
  O  O28  1  0.318479  0.202802  0.517495  1
  O  O29  1  0.818947  0.893670  0.154451  1
  O  O30  1  0.040386  0.653655  0.348602  1
  O  O31  1  0.403830  0.547516  0.219677  1
  O  O32  1  0.775415  0.246145  0.139623  1
  O  O33  1  0.205758  0.887841  0.117765  1
  O  O34  1  0.486809  0.140702  0.118473  1
  O  O35  1  0.096827  0.291165  0.196551  1
