# generated using pymatgen
data_SmBO3
_symmetry_space_group_name_H-M   'P 1'
_cell_length_a   6.31728052
_cell_length_b   6.52483539
_cell_length_c   6.53210137
_cell_angle_alpha   93.10964231
_cell_angle_beta   106.22154260
_cell_angle_gamma   107.02961938
_symmetry_Int_Tables_number   1
_chemical_formula_structural   SmBO3
_chemical_formula_sum   'Sm4 B4 O12'
_cell_volume   244.46377316
_cell_formula_units_Z   4
loop_
 _symmetry_equiv_pos_site_id
 _symmetry_equiv_pos_as_xyz
  1  'x, y, z'
loop_
 _atom_site_type_symbol
 _atom_site_label
 _atom_site_symmetry_multiplicity
 _atom_site_fract_x
 _atom_site_fract_y
 _atom_site_fract_z
 _atom_site_occupancy
  Sm  Sm0  1  0.557973  0.187102  0.277951  1
  Sm  Sm1  1  0.442027  0.812898  0.722049  1
  Sm  Sm2  1  0.046750  0.265801  0.832808  1
  Sm  Sm3  1  0.953250  0.734199  0.167192  1
  B  B4  1  0.982696  0.759878  0.719459  1
  B  B5  1  0.017304  0.240122  0.280541  1
  B  B6  1  0.479549  0.273810  0.765574  1
  B  B7  1  0.520451  0.726190  0.234426  1
  O  O8  1  0.425589  0.460720  0.750375  1
  O  O9  1  0.574411  0.539280  0.249625  1
  O  O10  1  0.910441  0.355215  0.131637  1
  O  O11  1  0.089559  0.644785  0.868363  1
  O  O12  1  0.044971  0.776353  0.535297  1
  O  O13  1  0.955029  0.223647  0.464703  1
  O  O14  1  0.848778  0.868582  0.784984  1
  O  O15  1  0.151222  0.131418  0.215016  1
  O  O16  1  0.384257  0.796713  0.337878  1
  O  O17  1  0.615743  0.203287  0.662122  1
  O  O18  1  0.372447  0.128422  0.886423  1
  O  O19  1  0.627553  0.871578  0.113577  1
