# generated using pymatgen
data_MnOF
_symmetry_space_group_name_H-M   'P 1'
_cell_length_a   4.62142018
_cell_length_b   4.63328000
_cell_length_c   9.56206026
_cell_angle_alpha   90.00000000
_cell_angle_beta   90.00000000
_cell_angle_gamma   90.00000000
_symmetry_Int_Tables_number   1
_chemical_formula_structural   MnOF
_chemical_formula_sum   'Mn6 O6 F6'
_cell_volume   204.74602507
_cell_formula_units_Z   6
loop_
 _symmetry_equiv_pos_site_id
 _symmetry_equiv_pos_as_xyz
  1  'x, y, z'
loop_
 _atom_site_type_symbol
 _atom_site_label
 _atom_site_symmetry_multiplicity
 _atom_site_fract_x
 _atom_site_fract_y
 _atom_site_fract_z
 _atom_site_occupancy
  Mn  Mn0  1  0.777895  0.017778  0.667313  1
  Mn  Mn1  1  0.777895  0.017778  0.332687  1
  Mn  Mn2  1  0.724229  0.953549  0.000000  1
  Mn  Mn3  1  0.222105  0.517778  0.832687  1
  Mn  Mn4  1  0.275771  0.453549  0.500000  1
  Mn  Mn5  1  0.222105  0.517778  0.167313  1
  O  O6  1  0.926591  0.811511  0.170776  1
  O  O7  1  0.926591  0.811511  0.829224  1
  O  O8  1  0.409459  0.690928  0.000000  1
  O  O9  1  0.073409  0.311511  0.670776  1
  O  O10  1  0.073409  0.311511  0.329224  1
  O  O11  1  0.590541  0.190928  0.500000  1
  F  F12  1  0.998160  0.781194  0.500000  1
  F  F13  1  0.477215  0.707875  0.659568  1
  F  F14  1  0.477215  0.707875  0.340432  1
  F  F15  1  0.001840  0.281194  0.000000  1
  F  F16  1  0.522785  0.207875  0.159568  1
  F  F17  1  0.522785  0.207875  0.840432  1
