# generated using pymatgen
data_MgBe13
_symmetry_space_group_name_H-M   'P 1'
_cell_length_a   7.13174482
_cell_length_b   7.13174482
_cell_length_c   7.13174482
_cell_angle_alpha   60.00000000
_cell_angle_beta   60.00000000
_cell_angle_gamma   60.00000000
_symmetry_Int_Tables_number   1
_chemical_formula_structural   MgBe13
_chemical_formula_sum   'Mg2 Be26'
_cell_volume   256.49115208
_cell_formula_units_Z   2
loop_
 _symmetry_equiv_pos_site_id
 _symmetry_equiv_pos_as_xyz
  1  'x, y, z'
loop_
 _atom_site_type_symbol
 _atom_site_label
 _atom_site_symmetry_multiplicity
 _atom_site_fract_x
 _atom_site_fract_y
 _atom_site_fract_z
 _atom_site_occupancy
  Mg  Mg0  1  0.750000  0.750000  0.750000  1
  Mg  Mg1  1  0.250000  0.250000  0.250000  1
  Be  Be2  1  0.000000  0.000000  0.000000  1
  Be  Be3  1  0.500000  0.500000  0.500000  1
  Be  Be4  1  0.065254  0.290218  0.709782  1
  Be  Be5  1  0.565254  0.790218  0.434746  1
  Be  Be6  1  0.790218  0.565254  0.209782  1
  Be  Be7  1  0.209782  0.565254  0.434746  1
  Be  Be8  1  0.790218  0.434746  0.565254  1
  Be  Be9  1  0.209782  0.790218  0.565254  1
  Be  Be10  1  0.565254  0.434746  0.209782  1
  Be  Be11  1  0.709782  0.290218  0.934746  1
  Be  Be12  1  0.934746  0.290218  0.065254  1
  Be  Be13  1  0.709782  0.065254  0.290218  1
  Be  Be14  1  0.290218  0.709782  0.065254  1
  Be  Be15  1  0.065254  0.934746  0.290218  1
  Be  Be16  1  0.065254  0.709782  0.934746  1
  Be  Be17  1  0.934746  0.065254  0.709782  1
  Be  Be18  1  0.290218  0.934746  0.709782  1
  Be  Be19  1  0.434746  0.790218  0.209782  1
  Be  Be20  1  0.209782  0.434746  0.790218  1
  Be  Be21  1  0.434746  0.565254  0.790218  1
  Be  Be22  1  0.790218  0.209782  0.434746  1
  Be  Be23  1  0.434746  0.209782  0.565254  1
  Be  Be24  1  0.565254  0.209782  0.790218  1
  Be  Be25  1  0.290218  0.065254  0.934746  1
  Be  Be26  1  0.934746  0.709782  0.290218  1
  Be  Be27  1  0.709782  0.934746  0.065254  1
