# generated using pymatgen
data_LiVP2HO8
_symmetry_space_group_name_H-M   'P 1'
_cell_length_a   7.78885572
_cell_length_b   7.96969612
_cell_length_c   9.75459228
_cell_angle_alpha   90.42914205
_cell_angle_beta   112.40990653
_cell_angle_gamma   89.89205444
_symmetry_Int_Tables_number   1
_chemical_formula_structural   LiVP2HO8
_chemical_formula_sum   'Li4 V4 P8 H4 O32'
_cell_volume   559.77010858
_cell_formula_units_Z   4
loop_
 _symmetry_equiv_pos_site_id
 _symmetry_equiv_pos_as_xyz
  1  'x, y, z'
loop_
 _atom_site_type_symbol
 _atom_site_label
 _atom_site_symmetry_multiplicity
 _atom_site_fract_x
 _atom_site_fract_y
 _atom_site_fract_z
 _atom_site_occupancy
  Li  Li0  1  0.348597  0.367417  0.227594  1
  Li  Li1  1  0.149758  0.871779  0.272988  1
  Li  Li2  1  0.654313  0.636497  0.777084  1
  Li  Li3  1  0.345600  0.366131  0.729014  1
  V  V4  1  0.986006  0.497011  0.247568  1
  V  V5  1  0.513724  0.996949  0.253566  1
  V  V6  1  0.997722  0.501739  0.748900  1
  V  V7  1  0.504309  0.002896  0.750661  1
  P  P8  1  0.769209  0.846995  0.068649  1
  P  P9  1  0.261570  0.651348  0.068688  1
  P  P10  1  0.731575  0.350301  0.431736  1
  P  P11  1  0.772313  0.854653  0.570221  1
  P  P12  1  0.235116  0.154302  0.431392  1
  P  P13  1  0.261158  0.659171  0.565642  1
  P  P14  1  0.733432  0.347807  0.932073  1
  P  P15  1  0.235080  0.151920  0.930685  1
  H  H16  1  0.488653  0.509440  0.012250  1
  H  H17  1  0.490164  0.510174  0.509355  1
  H  H18  1  0.004247  0.002838  0.495726  1
  H  H19  1  0.012712  0.011688  0.985792  1
  O  O20  1  0.947255  0.941350  0.094838  1
  O  O21  1  0.859435  0.331457  0.098282  1
  O  O22  1  0.813859  0.671316  0.138990  1
  O  O23  1  0.647340  0.942962  0.141463  1
  O  O24  1  0.441027  0.547875  0.096454  1
  O  O25  1  0.355122  0.173942  0.098576  1
  O  O26  1  0.309482  0.824609  0.142640  1
  O  O27  1  0.154237  0.548564  0.146257  1
  O  O28  1  0.849379  0.446163  0.357319  1
  O  O29  1  0.687969  0.173412  0.364319  1
  O  O30  1  0.638252  0.832802  0.404925  1
  O  O31  1  0.551796  0.444173  0.406541  1
  O  O32  1  0.348183  0.052100  0.355664  1
  O  O33  1  0.187227  0.326046  0.353870  1
  O  O34  1  0.949194  0.946478  0.588668  1
  O  O35  1  0.859991  0.345176  0.598934  1
  O  O36  1  0.144446  0.675474  0.398172  1
  O  O37  1  0.060489  0.050093  0.406258  1
  O  O38  1  0.813809  0.680344  0.648758  1
  O  O39  1  0.653167  0.947966  0.646993  1
  O  O40  1  0.446241  0.556889  0.595245  1
  O  O41  1  0.358242  0.178620  0.598750  1
  O  O42  1  0.319259  0.829072  0.641088  1
  O  O43  1  0.158640  0.548912  0.639953  1
  O  O44  1  0.841086  0.453889  0.856646  1
  O  O45  1  0.685525  0.172905  0.861733  1
  O  O46  1  0.642437  0.827450  0.901477  1
  O  O47  1  0.553562  0.447715  0.904123  1
  O  O48  1  0.353383  0.057043  0.857296  1
  O  O49  1  0.186263  0.324084  0.850884  1
  O  O50  1  0.140984  0.660054  0.901033  1
  O  O51  1  0.052999  0.057430  0.902679  1
