# generated using pymatgen
data_Ca3CrN3
_symmetry_space_group_name_H-M   'P 1'
_cell_length_a   6.64972051
_cell_length_b   6.64972051
_cell_length_c   5.06085273
_cell_angle_alpha   90.00000000
_cell_angle_beta   90.00000000
_cell_angle_gamma   101.23802745
_symmetry_Int_Tables_number   1
_chemical_formula_structural   Ca3CrN3
_chemical_formula_sum   'Ca6 Cr2 N6'
_cell_volume   219.49390460
_cell_formula_units_Z   2
loop_
 _symmetry_equiv_pos_site_id
 _symmetry_equiv_pos_as_xyz
  1  'x, y, z'
loop_
 _atom_site_type_symbol
 _atom_site_label
 _atom_site_symmetry_multiplicity
 _atom_site_fract_x
 _atom_site_fract_y
 _atom_site_fract_z
 _atom_site_occupancy
  Ca  Ca0  1  0.169510  0.404433  0.750000  1
  Ca  Ca1  1  0.893222  0.106778  0.250000  1
  Ca  Ca2  1  0.404433  0.169510  0.250000  1
  Ca  Ca3  1  0.106778  0.893222  0.750000  1
  Ca  Ca4  1  0.830490  0.595567  0.250000  1
  Ca  Ca5  1  0.595567  0.830490  0.750000  1
  Cr  Cr6  1  0.304205  0.695795  0.250000  1
  Cr  Cr7  1  0.695795  0.304205  0.750000  1
  N  N8  1  0.181990  0.434314  0.250000  1
  N  N9  1  0.873022  0.126978  0.750000  1
  N  N10  1  0.126978  0.873022  0.250000  1
  N  N11  1  0.434314  0.181990  0.750000  1
  N  N12  1  0.818010  0.565686  0.750000  1
  N  N13  1  0.565686  0.818010  0.250000  1
