# generated using pymatgen
data_K2Sn2Se5
_symmetry_space_group_name_H-M   'P 1'
_cell_length_a   7.26747907
_cell_length_b   7.26747907
_cell_length_c   12.09066275
_cell_angle_alpha   75.50083579
_cell_angle_beta   104.49916421
_cell_angle_gamma   108.86065512
_symmetry_Int_Tables_number   1
_chemical_formula_structural   K2Sn2Se5
_chemical_formula_sum   'K4 Sn4 Se10'
_cell_volume   574.95877694
_cell_formula_units_Z   2
loop_
 _symmetry_equiv_pos_site_id
 _symmetry_equiv_pos_as_xyz
  1  'x, y, z'
loop_
 _atom_site_type_symbol
 _atom_site_label
 _atom_site_symmetry_multiplicity
 _atom_site_fract_x
 _atom_site_fract_y
 _atom_site_fract_z
 _atom_site_occupancy
  K  K0  1  0.440041  0.904576  0.180816  1
  K  K1  1  0.904576  0.440041  0.319184  1
  K  K2  1  0.559959  0.095424  0.819184  1
  K  K3  1  0.095424  0.559959  0.680816  1
  Sn  Sn4  1  0.246712  0.054933  0.442475  1
  Sn  Sn5  1  0.945067  0.753288  0.942475  1
  Sn  Sn6  1  0.753288  0.945067  0.557525  1
  Sn  Sn7  1  0.054933  0.246712  0.057525  1
  Se  Se8  1  0.684393  0.684393  0.750000  1
  Se  Se9  1  0.315607  0.315607  0.250000  1
  Se  Se10  1  0.257240  0.644640  0.964289  1
  Se  Se11  1  0.121628  0.151879  0.879703  1
  Se  Se12  1  0.644640  0.257240  0.535711  1
  Se  Se13  1  0.742760  0.355360  0.035711  1
  Se  Se14  1  0.355360  0.742760  0.464289  1
  Se  Se15  1  0.878372  0.848121  0.120297  1
  Se  Se16  1  0.848121  0.878372  0.379703  1
  Se  Se17  1  0.151879  0.121628  0.620297  1
