# generated using pymatgen
data_Li2Mn2P2O9
_symmetry_space_group_name_H-M   'P 1'
_cell_length_a   5.64843609
_cell_length_b   8.38068926
_cell_length_c   15.04165474
_cell_angle_alpha   90.00000000
_cell_angle_beta   90.00000000
_cell_angle_gamma   90.00000000
_symmetry_Int_Tables_number   1
_chemical_formula_structural   Li2Mn2P2O9
_chemical_formula_sum   'Li8 Mn8 P8 O36'
_cell_volume   712.03865837
_cell_formula_units_Z   4
loop_
 _symmetry_equiv_pos_site_id
 _symmetry_equiv_pos_as_xyz
  1  'x, y, z'
loop_
 _atom_site_type_symbol
 _atom_site_label
 _atom_site_symmetry_multiplicity
 _atom_site_fract_x
 _atom_site_fract_y
 _atom_site_fract_z
 _atom_site_occupancy
  Li  Li0  1  0.750000  0.939694  0.759937  1
  Li  Li1  1  0.750000  0.940474  0.129171  1
  Li  Li2  1  0.250000  0.559526  0.629171  1
  Li  Li3  1  0.250000  0.560306  0.259937  1
  Li  Li4  1  0.750000  0.439694  0.740063  1
  Li  Li5  1  0.750000  0.440474  0.370829  1
  Li  Li6  1  0.250000  0.059526  0.870829  1
  Li  Li7  1  0.250000  0.060306  0.240063  1
  Mn  Mn8  1  0.000000  0.000000  0.500000  1
  Mn  Mn9  1  0.500000  0.000000  0.500000  1
  Mn  Mn10  1  0.750000  0.796083  0.939200  1
  Mn  Mn11  1  0.250000  0.703917  0.439200  1
  Mn  Mn12  1  0.000000  0.500000  0.000000  1
  Mn  Mn13  1  0.500000  0.500000  0.000000  1
  Mn  Mn14  1  0.750000  0.296083  0.560800  1
  Mn  Mn15  1  0.250000  0.203917  0.060800  1
  P  P16  1  0.250000  0.831021  0.076789  1
  P  P17  1  0.750000  0.790087  0.334792  1
  P  P18  1  0.250000  0.709913  0.834792  1
  P  P19  1  0.750000  0.668979  0.576789  1
  P  P20  1  0.250000  0.331021  0.423211  1
  P  P21  1  0.750000  0.290087  0.165208  1
  P  P22  1  0.250000  0.209913  0.665208  1
  P  P23  1  0.750000  0.168979  0.923211  1
  O  O24  1  0.750000  0.009152  0.977912  1
  O  O25  1  0.750000  0.925093  0.411085  1
  O  O26  1  0.250000  0.931102  0.425356  1
  O  O27  1  0.750000  0.873662  0.247414  1
  O  O28  1  0.250000  0.857755  0.175897  1
  O  O29  1  0.472825  0.820186  0.850445  1
  O  O30  1  0.027175  0.820186  0.850445  1
  O  O31  1  0.982483  0.758625  0.547076  1
  O  O32  1  0.517517  0.758625  0.547076  1
  O  O33  1  0.482483  0.741375  0.047076  1
  O  O34  1  0.017517  0.741375  0.047076  1
  O  O35  1  0.972825  0.679814  0.350445  1
  O  O36  1  0.527175  0.679814  0.350445  1
  O  O37  1  0.750000  0.642245  0.675897  1
  O  O38  1  0.250000  0.626338  0.747414  1
  O  O39  1  0.750000  0.568898  0.925356  1
  O  O40  1  0.250000  0.574907  0.911085  1
  O  O41  1  0.250000  0.490848  0.477912  1
  O  O42  1  0.750000  0.509152  0.522088  1
  O  O43  1  0.750000  0.425093  0.088915  1
  O  O44  1  0.250000  0.431102  0.074644  1
  O  O45  1  0.750000  0.373662  0.252586  1
  O  O46  1  0.250000  0.357755  0.324103  1
  O  O47  1  0.472825  0.320186  0.649555  1
  O  O48  1  0.027175  0.320186  0.649555  1
  O  O49  1  0.982483  0.258625  0.952924  1
  O  O50  1  0.517517  0.258625  0.952924  1
  O  O51  1  0.482483  0.241375  0.452924  1
  O  O52  1  0.017517  0.241375  0.452924  1
  O  O53  1  0.972825  0.179814  0.149555  1
  O  O54  1  0.527175  0.179814  0.149555  1
  O  O55  1  0.750000  0.142245  0.824103  1
  O  O56  1  0.250000  0.126338  0.752586  1
  O  O57  1  0.750000  0.068898  0.574644  1
  O  O58  1  0.250000  0.074907  0.588915  1
  O  O59  1  0.250000  0.990848  0.022088  1
