# generated using pymatgen
data_Li5Mn6(BO3)6
_symmetry_space_group_name_H-M   'P 1'
_cell_length_a   6.35332937
_cell_length_b   8.23458321
_cell_length_c   8.79728264
_cell_angle_alpha   116.95134196
_cell_angle_beta   111.05254729
_cell_angle_gamma   89.78507438
_symmetry_Int_Tables_number   1
_chemical_formula_structural   Li5Mn6(BO3)6
_chemical_formula_sum   'Li5 Mn6 B6 O18'
_cell_volume   375.81260710
_cell_formula_units_Z   1
loop_
 _symmetry_equiv_pos_site_id
 _symmetry_equiv_pos_as_xyz
  1  'x, y, z'
loop_
 _atom_site_type_symbol
 _atom_site_label
 _atom_site_symmetry_multiplicity
 _atom_site_fract_x
 _atom_site_fract_y
 _atom_site_fract_z
 _atom_site_occupancy
  Li  Li0  1  0.109330  0.705414  0.724440  1
  Li  Li1  1  0.394722  0.014622  0.299677  1
  Li  Li2  1  0.905021  0.015417  0.300823  1
  Li  Li3  1  0.235758  0.285733  0.980914  1
  Li  Li4  1  0.746352  0.284471  0.981463  1
  Mn  Mn5  1  0.328130  0.977651  0.642913  1
  Mn  Mn6  1  0.814314  0.978199  0.631227  1
  Mn  Mn7  1  0.500901  0.642334  0.998296  1
  Mn  Mn8  1  0.994725  0.636352  0.997702  1
  Mn  Mn9  1  0.189208  0.392711  0.376804  1
  Mn  Mn10  1  0.676378  0.370737  0.360295  1
  B  B11  1  0.408816  0.666322  0.328528  1
  B  B12  1  0.923768  0.665359  0.332667  1
  B  B13  1  0.009626  0.012937  0.009510  1
  B  B14  1  0.500717  0.009708  0.009833  1
  B  B15  1  0.088268  0.324383  0.661702  1
  B  B16  1  0.569710  0.321263  0.659469  1
  O  O17  1  0.351849  0.737520  0.206638  1
  O  O18  1  0.855540  0.739985  0.214472  1
  O  O19  1  0.512505  0.775045  0.517014  1
  O  O20  1  0.016726  0.773171  0.524135  1
  O  O21  1  0.428222  0.822110  0.893660  1
  O  O22  1  0.971292  0.823300  0.904406  1
  O  O23  1  0.356439  0.469567  0.253615  1
  O  O24  1  0.898817  0.469519  0.256286  1
  O  O25  1  0.037815  0.412374  0.549751  1
  O  O26  1  0.498589  0.393909  0.536302  1
  O  O27  1  0.672315  0.438076  0.849638  1
  O  O28  1  0.176806  0.438616  0.851901  1
  O  O29  1  0.603849  0.083898  0.203534  1
  O  O30  1  0.099516  0.101162  0.205024  1
  O  O31  1  0.045179  0.134178  0.580647  1
  O  O32  1  0.539552  0.131162  0.584363  1
  O  O33  1  0.962684  0.121818  0.921116  1
  O  O34  1  0.468374  0.130974  0.934858  1
