# generated using pymatgen
data_Li4Mn5(CuO6)2
_symmetry_space_group_name_H-M   'P 1'
_cell_length_a   5.35359482
_cell_length_b   8.80647976
_cell_length_c   9.75844751
_cell_angle_alpha   90.00000000
_cell_angle_beta   97.42877476
_cell_angle_gamma   90.00000000
_symmetry_Int_Tables_number   1
_chemical_formula_structural   Li4Mn5(CuO6)2
_chemical_formula_sum   'Li8 Mn10 Cu4 O24'
_cell_volume   456.21322603
_cell_formula_units_Z   2
loop_
 _symmetry_equiv_pos_site_id
 _symmetry_equiv_pos_as_xyz
  1  'x, y, z'
loop_
 _atom_site_type_symbol
 _atom_site_label
 _atom_site_symmetry_multiplicity
 _atom_site_fract_x
 _atom_site_fract_y
 _atom_site_fract_z
 _atom_site_occupancy
  Li  Li0  1  0.012486  0.902915  0.262024  1
  Li  Li1  1  0.477115  0.915098  0.738860  1
  Li  Li2  1  0.760260  0.578822  0.493708  1
  Li  Li3  1  0.987514  0.402915  0.737976  1
  Li  Li4  1  0.491275  0.593870  0.736315  1
  Li  Li5  1  0.522885  0.415098  0.261140  1
  Li  Li6  1  0.239740  0.078822  0.506292  1
  Li  Li7  1  0.508725  0.093870  0.263685  1
  Mn  Mn8  1  0.264190  0.925933  0.003809  1
  Mn  Mn9  1  0.742692  0.915964  0.502343  1
  Mn  Mn10  1  0.991287  0.753994  0.744867  1
  Mn  Mn11  1  0.231731  0.588488  0.992814  1
  Mn  Mn12  1  0.507786  0.744818  0.255143  1
  Mn  Mn13  1  0.257308  0.415964  0.497657  1
  Mn  Mn14  1  0.735810  0.425933  0.996191  1
  Mn  Mn15  1  0.008713  0.253994  0.255133  1
  Mn  Mn16  1  0.492214  0.244818  0.744857  1
  Mn  Mn17  1  0.768269  0.088488  0.007186  1
  Cu  Cu18  1  0.243942  0.738004  0.493093  1
  Cu  Cu19  1  0.753166  0.752374  0.005069  1
  Cu  Cu20  1  0.246834  0.252374  0.994931  1
  Cu  Cu21  1  0.756058  0.238004  0.506907  1
  O  O22  1  0.095601  0.889222  0.603198  1
  O  O23  1  0.905456  0.923490  0.906941  1
  O  O24  1  0.184852  0.765921  0.130037  1
  O  O25  1  0.604721  0.918668  0.115210  1
  O  O26  1  0.823763  0.762302  0.371108  1
  O  O27  1  0.397739  0.897831  0.391470  1
  O  O28  1  0.141068  0.575923  0.609226  1
  O  O29  1  0.664389  0.762215  0.636356  1
  O  O30  1  0.878183  0.600654  0.870332  1
  O  O31  1  0.321226  0.743619  0.860830  1
  O  O32  1  0.094544  0.423490  0.093059  1
  O  O33  1  0.598573  0.584280  0.111721  1
  O  O34  1  0.904399  0.389222  0.396802  1
  O  O35  1  0.383928  0.578605  0.389233  1
  O  O36  1  0.176237  0.262302  0.628892  1
  O  O37  1  0.602261  0.397831  0.608530  1
  O  O38  1  0.815148  0.265921  0.869963  1
  O  O39  1  0.395279  0.418668  0.884790  1
  O  O40  1  0.121817  0.100654  0.129668  1
  O  O41  1  0.678774  0.243619  0.139170  1
  O  O42  1  0.858932  0.075923  0.390774  1
  O  O43  1  0.335611  0.262215  0.363644  1
  O  O44  1  0.616072  0.078605  0.610767  1
  O  O45  1  0.401427  0.084280  0.888279  1
