# generated using pymatgen
data_Li2MnSiO4
_symmetry_space_group_name_H-M   'P 1'
_cell_length_a   5.45265700
_cell_length_b   10.61562657
_cell_length_c   13.18726975
_cell_angle_alpha   90.00000000
_cell_angle_beta   90.00000000
_cell_angle_gamma   90.00000000
_symmetry_Int_Tables_number   1
_chemical_formula_structural   Li2MnSiO4
_chemical_formula_sum   'Li16 Mn8 Si8 O32'
_cell_volume   763.32362117
_cell_formula_units_Z   8
loop_
 _symmetry_equiv_pos_site_id
 _symmetry_equiv_pos_as_xyz
  1  'x, y, z'
loop_
 _atom_site_type_symbol
 _atom_site_label
 _atom_site_symmetry_multiplicity
 _atom_site_fract_x
 _atom_site_fract_y
 _atom_site_fract_z
 _atom_site_occupancy
  Li  Li0  1  0.030958  0.028024  0.560802  1
  Li  Li1  1  0.538715  0.047152  0.942725  1
  Li  Li2  1  0.632177  0.787381  0.300512  1
  Li  Li3  1  0.148966  0.792519  0.202274  1
  Li  Li4  1  0.148966  0.707481  0.702274  1
  Li  Li5  1  0.632177  0.712619  0.800512  1
  Li  Li6  1  0.030958  0.471976  0.060802  1
  Li  Li7  1  0.538715  0.452848  0.442725  1
  Li  Li8  1  0.461285  0.547152  0.942725  1
  Li  Li9  1  0.969042  0.528024  0.560802  1
  Li  Li10  1  0.367823  0.287381  0.300512  1
  Li  Li11  1  0.851034  0.292519  0.202274  1
  Li  Li12  1  0.851034  0.207481  0.702274  1
  Li  Li13  1  0.367823  0.212619  0.800512  1
  Li  Li14  1  0.969042  0.971976  0.060802  1
  Li  Li15  1  0.461285  0.952848  0.442725  1
  Mn  Mn16  1  0.031226  0.964223  0.812666  1
  Mn  Mn17  1  0.482346  0.793624  0.057001  1
  Mn  Mn18  1  0.482346  0.706376  0.557001  1
  Mn  Mn19  1  0.031226  0.535777  0.312666  1
  Mn  Mn20  1  0.968774  0.464223  0.812666  1
  Mn  Mn21  1  0.517654  0.293624  0.057001  1
  Mn  Mn22  1  0.517654  0.206376  0.557001  1
  Mn  Mn23  1  0.968774  0.035777  0.312666  1
  Si  Si24  1  0.521871  0.964918  0.690373  1
  Si  Si25  1  0.975668  0.789077  0.437171  1
  Si  Si26  1  0.975668  0.710923  0.937171  1
  Si  Si27  1  0.521871  0.535082  0.190373  1
  Si  Si28  1  0.478129  0.464918  0.690373  1
  Si  Si29  1  0.024332  0.289077  0.437171  1
  Si  Si30  1  0.024332  0.210923  0.937171  1
  Si  Si31  1  0.478129  0.035082  0.190373  1
  O  O32  1  0.605457  0.976990  0.294839  1
  O  O33  1  0.186718  0.989072  0.188097  1
  O  O34  1  0.101864  0.929727  0.433785  1
  O  O35  1  0.606965  0.972728  0.088320  1
  O  O36  1  0.475204  0.809939  0.692133  1
  O  O37  1  0.987642  0.771156  0.820767  1
  O  O38  1  0.677942  0.804512  0.455765  1
  O  O39  1  0.105214  0.801757  0.023502  1
  O  O40  1  0.105214  0.698243  0.523502  1
  O  O41  1  0.677942  0.695488  0.955765  1
  O  O42  1  0.987642  0.728844  0.320767  1
  O  O43  1  0.475204  0.690061  0.192133  1
  O  O44  1  0.606965  0.527272  0.588320  1
  O  O45  1  0.101864  0.570273  0.933785  1
  O  O46  1  0.186718  0.510928  0.688097  1
  O  O47  1  0.605457  0.523010  0.794839  1
  O  O48  1  0.394543  0.476990  0.294839  1
  O  O49  1  0.813282  0.489072  0.188097  1
  O  O50  1  0.898136  0.429727  0.433785  1
  O  O51  1  0.393035  0.472728  0.088320  1
  O  O52  1  0.524796  0.309939  0.692133  1
  O  O53  1  0.012358  0.271156  0.820767  1
  O  O54  1  0.322058  0.304512  0.455765  1
  O  O55  1  0.894786  0.301757  0.023502  1
  O  O56  1  0.894786  0.198243  0.523502  1
  O  O57  1  0.322058  0.195488  0.955765  1
  O  O58  1  0.012358  0.228844  0.320767  1
  O  O59  1  0.524796  0.190061  0.192133  1
  O  O60  1  0.393035  0.027272  0.588320  1
  O  O61  1  0.898136  0.070273  0.933785  1
  O  O62  1  0.813282  0.010928  0.688097  1
  O  O63  1  0.394543  0.023010  0.794839  1
