# generated using pymatgen
data_Li5Mn8(BO3)8
_symmetry_space_group_name_H-M   'P 1'
_cell_length_a   5.29476383
_cell_length_b   9.15421175
_cell_length_c   10.36862326
_cell_angle_alpha   91.91562192
_cell_angle_beta   90.85269303
_cell_angle_gamma   90.06344559
_symmetry_Int_Tables_number   1
_chemical_formula_structural   Li5Mn8(BO3)8
_chemical_formula_sum   'Li5 Mn8 B8 O24'
_cell_volume   502.22370574
_cell_formula_units_Z   1
loop_
 _symmetry_equiv_pos_site_id
 _symmetry_equiv_pos_as_xyz
  1  'x, y, z'
loop_
 _atom_site_type_symbol
 _atom_site_label
 _atom_site_symmetry_multiplicity
 _atom_site_fract_x
 _atom_site_fract_y
 _atom_site_fract_z
 _atom_site_occupancy
  Li  Li0  1  0.938471  0.923619  0.320451  1
  Li  Li1  1  0.900877  0.928371  0.854872  1
  Li  Li2  1  0.585735  0.579811  0.599163  1
  Li  Li3  1  0.441077  0.412251  0.338777  1
  Li  Li4  1  0.413038  0.429378  0.827767  1
  Mn  Mn5  1  0.928854  0.265218  0.372905  1
  Mn  Mn6  1  0.931245  0.588361  0.866289  1
  Mn  Mn7  1  0.549872  0.912354  0.119168  1
  Mn  Mn8  1  0.569471  0.231876  0.617508  1
  Mn  Mn9  1  0.424117  0.742551  0.364255  1
  Mn  Mn10  1  0.405551  0.093628  0.872390  1
  Mn  Mn11  1  0.098392  0.405897  0.111008  1
  Mn  Mn12  1  0.080539  0.772208  0.616697  1
  B  B13  1  0.919698  0.585271  0.380826  1
  B  B14  1  0.910773  0.253157  0.865066  1
  B  B15  1  0.610088  0.243192  0.137970  1
  B  B16  1  0.566681  0.911620  0.637496  1
  B  B17  1  0.416945  0.084011  0.362375  1
  B  B18  1  0.418739  0.750532  0.876389  1
  B  B19  1  0.076690  0.741337  0.115406  1
  B  B20  1  0.075921  0.426518  0.622253  1
  O  O21  1  0.923990  0.855721  0.141163  1
  O  O22  1  0.929419  0.317545  0.559762  1
  O  O23  1  0.986281  0.611896  0.051598  1
  O  O24  1  0.939495  0.548960  0.673898  1
  O  O25  1  0.861449  0.243117  0.187028  1
  O  O26  1  0.814671  0.912173  0.669868  1
  O  O27  1  0.665245  0.565441  0.397172  1
  O  O28  1  0.659758  0.269246  0.823949  1
  O  O29  1  0.552245  0.961222  0.312151  1
  O  O30  1  0.539161  0.877822  0.928267  1
  O  O31  1  0.559501  0.205246  0.408467  1
  O  O32  1  0.549862  0.624490  0.854859  1
  O  O33  1  0.462374  0.360960  0.155093  1
  O  O34  1  0.456780  0.787846  0.574616  1
  O  O35  1  0.525957  0.117846  0.070555  1
  O  O36  1  0.415926  0.031780  0.670298  1
  O  O37  1  0.331853  0.740747  0.156223  1
  O  O38  1  0.331420  0.420315  0.633562  1
  O  O39  1  0.162046  0.084881  0.368234  1
  O  O40  1  0.162988  0.763327  0.841687  1
  O  O41  1  0.074351  0.468128  0.339072  1
  O  O42  1  0.054656  0.381805  0.895847  1
  O  O43  1  0.033509  0.720374  0.409290  1
  O  O44  1  0.023415  0.123241  0.881024  1
