# generated using pymatgen
data_V6O11
_symmetry_space_group_name_H-M   'P 1'
_cell_length_a   5.86665473
_cell_length_b   5.86665473
_cell_length_c   13.40120262
_cell_angle_alpha   90.00000000
_cell_angle_beta   90.00000000
_cell_angle_gamma   121.06866642
_symmetry_Int_Tables_number   1
_chemical_formula_structural   V6O11
_chemical_formula_sum   'V12 O22'
_cell_volume   395.07292238
_cell_formula_units_Z   2
loop_
 _symmetry_equiv_pos_site_id
 _symmetry_equiv_pos_as_xyz
  1  'x, y, z'
loop_
 _atom_site_type_symbol
 _atom_site_label
 _atom_site_symmetry_multiplicity
 _atom_site_fract_x
 _atom_site_fract_y
 _atom_site_fract_z
 _atom_site_occupancy
  V  V0  1  0.999354  0.000646  0.648787  1
  V  V1  1  0.999354  0.000646  0.851213  1
  V  V2  1  0.500000  0.500000  0.500000  1
  V  V3  1  0.500000  0.000000  0.500000  1
  V  V4  1  0.000000  0.500000  0.500000  1
  V  V5  1  0.669264  0.330736  0.250000  1
  V  V6  1  0.330736  0.669264  0.750000  1
  V  V7  1  0.000000  0.500000  0.000000  1
  V  V8  1  0.500000  0.000000  0.000000  1
  V  V9  1  0.500000  0.500000  0.000000  1
  V  V10  1  0.000646  0.999354  0.351213  1
  V  V11  1  0.000646  0.999354  0.148787  1
  O  O12  1  0.156322  0.301502  0.750000  1
  O  O13  1  0.840154  0.159846  0.250000  1
  O  O14  1  0.171841  0.342455  0.426174  1
  O  O15  1  0.171841  0.342455  0.073826  1
  O  O16  1  0.824654  0.175346  0.574459  1
  O  O17  1  0.824654  0.175346  0.925541  1
  O  O18  1  0.698498  0.843678  0.750000  1
  O  O19  1  0.657545  0.828159  0.426174  1
  O  O20  1  0.333447  0.666553  0.913696  1
  O  O21  1  0.333447  0.666553  0.586304  1
  O  O22  1  0.657545  0.828159  0.073826  1
  O  O23  1  0.342455  0.171841  0.573826  1
  O  O24  1  0.666553  0.333447  0.086304  1
  O  O25  1  0.666553  0.333447  0.413696  1
  O  O26  1  0.342455  0.171841  0.926174  1
  O  O27  1  0.301502  0.156322  0.250000  1
  O  O28  1  0.175346  0.824654  0.425541  1
  O  O29  1  0.175346  0.824654  0.074459  1
  O  O30  1  0.828159  0.657545  0.573826  1
  O  O31  1  0.828159  0.657545  0.926174  1
  O  O32  1  0.159846  0.840154  0.750000  1
  O  O33  1  0.843678  0.698498  0.250000  1
