# generated using pymatgen
data_Ni6OF11
_symmetry_space_group_name_H-M   'P 1'
_cell_length_a   5.63113465
_cell_length_b   5.63113465
_cell_length_c   7.35858246
_cell_angle_alpha   72.27675868
_cell_angle_beta   107.72324132
_cell_angle_gamma   107.98869718
_symmetry_Int_Tables_number   1
_chemical_formula_structural   Ni6OF11
_chemical_formula_sum   'Ni6 O1 F11'
_cell_volume   205.61871326
_cell_formula_units_Z   1
loop_
 _symmetry_equiv_pos_site_id
 _symmetry_equiv_pos_as_xyz
  1  'x, y, z'
loop_
 _atom_site_type_symbol
 _atom_site_label
 _atom_site_symmetry_multiplicity
 _atom_site_fract_x
 _atom_site_fract_y
 _atom_site_fract_z
 _atom_site_occupancy
  Ni  Ni0  1  0.344488  0.666864  0.838942  1
  Ni  Ni1  1  0.334025  0.669769  0.333305  1
  Ni  Ni2  1  0.669769  0.334025  0.666695  1
  Ni  Ni3  1  0.666864  0.344488  0.161058  1
  Ni  Ni4  1  0.000871  0.000871  0.500000  1
  Ni  Ni5  1  0.992665  0.992665  0.000000  1
  O  O6  1  0.691388  0.691388  0.000000  1
  F  F7  1  0.977396  0.637423  0.670661  1
  F  F8  1  0.637423  0.977396  0.329339  1
  F  F9  1  0.099236  0.898322  0.297903  1
  F  F10  1  0.435346  0.564248  0.631071  1
  F  F11  1  0.765687  0.230610  0.964357  1
  F  F12  1  0.898322  0.099236  0.702097  1
  F  F13  1  0.230610  0.765687  0.035643  1
  F  F14  1  0.564248  0.435346  0.368929  1
  F  F15  1  0.029903  0.365428  0.332824  1
  F  F16  1  0.365428  0.029903  0.667176  1
  F  F17  1  0.296330  0.296330  0.000000  1
