# generated using pymatgen
data_Fe10O9F11
_symmetry_space_group_name_H-M   'P 1'
_cell_length_a   4.74689646
_cell_length_b   4.76005019
_cell_length_c   15.60544657
_cell_angle_alpha   89.77075088
_cell_angle_beta   89.85031840
_cell_angle_gamma   88.35634863
_symmetry_Int_Tables_number   1
_chemical_formula_structural   Fe10O9F11
_chemical_formula_sum   'Fe10 O9 F11'
_cell_volume   352.46332445
_cell_formula_units_Z   1
loop_
 _symmetry_equiv_pos_site_id
 _symmetry_equiv_pos_as_xyz
  1  'x, y, z'
loop_
 _atom_site_type_symbol
 _atom_site_label
 _atom_site_symmetry_multiplicity
 _atom_site_fract_x
 _atom_site_fract_y
 _atom_site_fract_z
 _atom_site_occupancy
  Fe  Fe0  1  0.004037  0.014594  0.006378  1
  Fe  Fe1  1  0.040234  0.977576  0.792987  1
  Fe  Fe2  1  0.989764  0.057620  0.597727  1
  Fe  Fe3  1  0.051560  0.997823  0.401675  1
  Fe  Fe4  1  0.022637  0.026214  0.203893  1
  Fe  Fe5  1  0.497072  0.517881  0.903607  1
  Fe  Fe6  1  0.480769  0.485283  0.501290  1
  Fe  Fe7  1  0.477164  0.474136  0.700701  1
  Fe  Fe8  1  0.479234  0.497500  0.304169  1
  Fe  Fe9  1  0.474927  0.477461  0.087798  1
  O  O10  1  0.187095  0.192138  0.700769  1
  O  O11  1  0.192691  0.199265  0.502054  1
  O  O12  1  0.192849  0.182429  0.299269  1
  O  O13  1  0.186886  0.194183  0.100911  1
  O  O14  1  0.294897  0.703543  0.996506  1
  O  O15  1  0.320068  0.680976  0.800511  1
  O  O16  1  0.315934  0.691078  0.407905  1
  O  O17  1  0.695426  0.302794  0.994562  1
  O  O18  1  0.678129  0.323416  0.602806  1
  F  F19  1  0.196615  0.189428  0.896260  1
  F  F20  1  0.286580  0.706713  0.604116  1
  F  F21  1  0.299508  0.692032  0.191344  1
  F  F22  1  0.706865  0.289797  0.801413  1
  F  F23  1  0.710244  0.286267  0.406811  1
  F  F24  1  0.688007  0.306441  0.194354  1
  F  F25  1  0.814889  0.810441  0.895144  1
  F  F26  1  0.804699  0.809629  0.504524  1
  F  F27  1  0.800630  0.804027  0.701315  1
  F  F28  1  0.795272  0.803083  0.101573  1
  F  F29  1  0.815319  0.806231  0.297629  1
