# generated using pymatgen
data_Ba2YI7
_symmetry_space_group_name_H-M   'P 1'
_cell_length_a   8.34697557
_cell_length_b   15.18447319
_cell_length_c   14.87646468
_cell_angle_alpha   90.00000000
_cell_angle_beta   101.36333405
_cell_angle_gamma   90.00000000
_symmetry_Int_Tables_number   1
_chemical_formula_structural   Ba2YI7
_chemical_formula_sum   'Ba8 Y4 I28'
_cell_volume   1848.54822776
_cell_formula_units_Z   4
loop_
 _symmetry_equiv_pos_site_id
 _symmetry_equiv_pos_as_xyz
  1  'x, y, z'
loop_
 _atom_site_type_symbol
 _atom_site_label
 _atom_site_symmetry_multiplicity
 _atom_site_fract_x
 _atom_site_fract_y
 _atom_site_fract_z
 _atom_site_occupancy
  Ba  Ba0  1  0.228820  0.544639  0.766260  1
  Ba  Ba1  1  0.245794  0.129340  0.641577  1
  Ba  Ba2  1  0.229855  0.794651  0.143767  1
  Ba  Ba3  1  0.333648  0.361304  0.250444  1
  Ba  Ba4  1  0.666352  0.861304  0.749556  1
  Ba  Ba5  1  0.770145  0.294651  0.856233  1
  Ba  Ba6  1  0.754206  0.629340  0.358423  1
  Ba  Ba7  1  0.771180  0.044639  0.233740  1
  Y  Y8  1  0.166495  0.844301  0.551938  1
  Y  Y9  1  0.183316  0.077464  0.052352  1
  Y  Y10  1  0.816684  0.577464  0.947648  1
  Y  Y11  1  0.833505  0.344301  0.448062  1
  I  I12  1  0.051018  0.713450  0.894755  1
  I  I13  1  0.082615  0.438256  0.993265  1
  I  I14  1  0.051273  0.500493  0.513677  1
  I  I15  1  0.127374  0.160196  0.865087  1
  I  I16  1  0.126516  0.239919  0.409212  1
  I  I17  1  0.126650  0.757207  0.366480  1
  I  I18  1  0.209167  0.915822  0.746416  1
  I  I19  1  0.201615  0.008556  0.249582  1
  I  I20  1  0.385290  0.340362  0.712864  1
  I  I21  1  0.383583  0.585173  0.206812  1
  I  I22  1  0.402084  0.693220  0.621433  1
  I  I23  1  0.531920  0.705480  0.893994  1
  I  I24  1  0.464722  0.955694  0.537309  1
  I  I25  1  0.555826  0.447527  0.970271  1
  I  I26  1  0.444174  0.947527  0.029729  1
  I  I27  1  0.535278  0.455694  0.462691  1
  I  I28  1  0.468080  0.205480  0.106006  1
  I  I29  1  0.597916  0.193220  0.378567  1
  I  I30  1  0.616417  0.085173  0.793188  1
  I  I31  1  0.614710  0.840362  0.287136  1
  I  I32  1  0.798385  0.508556  0.750418  1
  I  I33  1  0.790833  0.415822  0.253584  1
  I  I34  1  0.873350  0.257207  0.633520  1
  I  I35  1  0.873484  0.739919  0.590788  1
  I  I36  1  0.872626  0.660196  0.134913  1
  I  I37  1  0.948727  0.000493  0.486323  1
  I  I38  1  0.917385  0.938256  0.006735  1
  I  I39  1  0.948982  0.213450  0.105245  1
