# generated using pymatgen
data_LiFe4(BO3)4
_symmetry_space_group_name_H-M   'P 1'
_cell_length_a   5.22171944
_cell_length_b   5.25295215
_cell_length_c   20.13568036
_cell_angle_alpha   90.40468292
_cell_angle_beta   90.16342785
_cell_angle_gamma   118.81624163
_symmetry_Int_Tables_number   1
_chemical_formula_structural   LiFe4(BO3)4
_chemical_formula_sum   'Li2 Fe8 B8 O24'
_cell_volume   483.89351304
_cell_formula_units_Z   2
loop_
 _symmetry_equiv_pos_site_id
 _symmetry_equiv_pos_as_xyz
  1  'x, y, z'
loop_
 _atom_site_type_symbol
 _atom_site_label
 _atom_site_symmetry_multiplicity
 _atom_site_fract_x
 _atom_site_fract_y
 _atom_site_fract_z
 _atom_site_occupancy
  Li  Li0  1  0.672299  0.654116  0.322460  1
  Li  Li1  1  0.342450  0.348849  0.453548  1
  Fe  Fe2  1  0.004677  0.674085  0.189367  1
  Fe  Fe3  1  0.000424  0.673525  0.689899  1
  Fe  Fe4  1  0.326328  0.997784  0.063986  1
  Fe  Fe5  1  0.325488  0.992051  0.564801  1
  Fe  Fe6  1  0.681472  0.006553  0.438713  1
  Fe  Fe7  1  0.676203  0.006776  0.938694  1
  Fe  Fe8  1  0.008407  0.321377  0.312075  1
  Fe  Fe9  1  0.995741  0.326745  0.814510  1
  B  B10  1  0.998782  0.343369  0.063541  1
  B  B11  1  0.998171  0.333886  0.563516  1
  B  B12  1  0.666577  0.004748  0.188931  1
  B  B13  1  0.658200  0.005044  0.688909  1
  B  B14  1  0.344838  0.999705  0.314351  1
  B  B15  1  0.337135  0.996254  0.814043  1
  B  B16  1  0.002705  0.664330  0.438762  1
  B  B17  1  0.004909  0.664626  0.938255  1
  O  O18  1  0.886316  0.274820  0.208798  1
  O  O19  1  0.872756  0.269794  0.715588  1
  O  O20  1  0.732364  0.129224  0.036570  1
  O  O21  1  0.009773  0.601040  0.086356  1
  O  O22  1  0.727602  0.111395  0.544611  1
  O  O23  1  0.020147  0.594058  0.588269  1
  O  O24  1  0.402884  0.980961  0.164637  1
  O  O25  1  0.739738  0.660024  0.430504  1
  O  O26  1  0.397673  0.992899  0.666181  1
  O  O27  1  0.771456  0.708737  0.935634  1
  O  O28  1  0.698720  0.763777  0.194525  1
  O  O29  1  0.702863  0.772552  0.685698  1
  O  O30  1  0.350055  0.261217  0.318636  1
  O  O31  1  0.293349  0.228869  0.815714  1
  O  O32  1  0.231263  0.296957  0.066220  1
  O  O33  1  0.590379  0.978280  0.332736  1
  O  O34  1  0.243923  0.306034  0.555564  1
  O  O35  1  0.595430  0.010069  0.838080  1
  O  O36  1  0.028567  0.421117  0.422673  1
  O  O37  1  0.990879  0.406996  0.913976  1
  O  O38  1  0.251173  0.916225  0.462887  1
  O  O39  1  0.270978  0.875879  0.965087  1
  O  O40  1  0.090613  0.747870  0.292185  1
  O  O41  1  0.123941  0.729976  0.787477  1
