# generated using pymatgen
data_NdSi2
_symmetry_space_group_name_H-M   'P 1'
_cell_length_a   7.69749301
_cell_length_b   7.69749301
_cell_length_c   7.69749301
_cell_angle_alpha   148.48871477
_cell_angle_beta   148.48871477
_cell_angle_gamma   45.16443944
_symmetry_Int_Tables_number   1
_chemical_formula_structural   NdSi2
_chemical_formula_sum   'Nd2 Si4'
_cell_volume   124.19867391
_cell_formula_units_Z   2
loop_
 _symmetry_equiv_pos_site_id
 _symmetry_equiv_pos_as_xyz
  1  'x, y, z'
loop_
 _atom_site_type_symbol
 _atom_site_label
 _atom_site_symmetry_multiplicity
 _atom_site_fract_x
 _atom_site_fract_y
 _atom_site_fract_z
 _atom_site_occupancy
  Nd  Nd0  1  0.500000  0.500000  0.000000  1
  Nd  Nd1  1  0.250000  0.750000  0.500000  1
  Si  Si2  1  0.833747  0.333747  0.500000  1
  Si  Si3  1  0.083747  0.083747  0.000000  1
  Si  Si4  1  0.666253  0.166253  0.500000  1
  Si  Si5  1  0.916253  0.916253  0.000000  1
