# generated using pymatgen
data_Ca4Al6SO12
_symmetry_space_group_name_H-M   'P 1'
_cell_length_a   7.87792819
_cell_length_b   7.87792819
_cell_length_c   7.87792819
_cell_angle_alpha   109.47122063
_cell_angle_beta   109.47122063
_cell_angle_gamma   109.47122063
_symmetry_Int_Tables_number   1
_chemical_formula_structural   Ca4Al6SO12
_chemical_formula_sum   'Ca4 Al6 S1 O12'
_cell_volume   376.36927509
_cell_formula_units_Z   1
loop_
 _symmetry_equiv_pos_site_id
 _symmetry_equiv_pos_as_xyz
  1  'x, y, z'
loop_
 _atom_site_type_symbol
 _atom_site_label
 _atom_site_symmetry_multiplicity
 _atom_site_fract_x
 _atom_site_fract_y
 _atom_site_fract_z
 _atom_site_occupancy
  Ca  Ca0  1  0.000000  0.646539  1.000000  1
  Ca  Ca1  1  0.646539  0.000000  0.000000  1
  Ca  Ca2  1  0.000000  0.000000  0.646539  1
  Ca  Ca3  1  0.353461  0.353461  0.353461  1
  Al  Al4  1  0.500000  0.250000  0.750000  1
  Al  Al5  1  0.500000  0.750000  0.250000  1
  Al  Al6  1  0.250000  0.750000  0.500000  1
  Al  Al7  1  0.750000  0.250000  0.500000  1
  Al  Al8  1  0.250000  0.500000  0.750000  1
  Al  Al9  1  0.750000  0.500000  0.250000  1
  S  S10  1  0.000000  0.000000  0.000000  1
  O  O11  1  0.278569  0.708958  0.278569  1
  O  O12  1  0.278569  0.278569  0.708958  1
  O  O13  1  0.569610  0.291042  0.569610  1
  O  O14  1  0.291042  0.569610  0.569610  1
  O  O15  1  1.000000  0.430390  0.721431  1
  O  O16  1  0.430390  1.000000  0.721431  1
  O  O17  1  0.569610  0.569610  0.291042  1
  O  O18  1  0.430390  0.721431  1.000000  1
  O  O19  1  0.721431  0.430390  0.000000  1
  O  O20  1  0.000000  0.721431  0.430390  1
  O  O21  1  0.708958  0.278569  0.278569  1
  O  O22  1  0.721431  0.000000  0.430390  1
