# generated using pymatgen
data_Na6Co2B4SO16
_symmetry_space_group_name_H-M   'P 1'
_cell_length_a   9.78172735
_cell_length_b   9.78172735
_cell_length_c   9.78172735
_cell_angle_alpha   60.00000000
_cell_angle_beta   60.00000000
_cell_angle_gamma   60.00000000
_symmetry_Int_Tables_number   1
_chemical_formula_structural   Na6Co2B4SO16
_chemical_formula_sum   'Na12 Co4 B8 S2 O32'
_cell_volume   661.80746626
_cell_formula_units_Z   2
loop_
 _symmetry_equiv_pos_site_id
 _symmetry_equiv_pos_as_xyz
  1  'x, y, z'
loop_
 _atom_site_type_symbol
 _atom_site_label
 _atom_site_symmetry_multiplicity
 _atom_site_fract_x
 _atom_site_fract_y
 _atom_site_fract_z
 _atom_site_occupancy
  Na  Na0  1  0.468307  0.468307  0.031693  1
  Na  Na1  1  0.031693  0.468307  0.031693  1
  Na  Na2  1  0.031693  0.468307  0.468307  1
  Na  Na3  1  0.468307  0.031693  0.031693  1
  Na  Na4  1  0.218307  0.218307  0.781693  1
  Na  Na5  1  0.781693  0.218307  0.781693  1
  Na  Na6  1  0.468307  0.031693  0.468307  1
  Na  Na7  1  0.031693  0.031693  0.468307  1
  Na  Na8  1  0.781693  0.218307  0.218307  1
  Na  Na9  1  0.218307  0.781693  0.781693  1
  Na  Na10  1  0.781693  0.781693  0.218307  1
  Na  Na11  1  0.218307  0.781693  0.218307  1
  Co  Co12  1  0.625000  0.625000  0.125000  1
  Co  Co13  1  0.625000  0.625000  0.625000  1
  Co  Co14  1  0.125000  0.625000  0.625000  1
  Co  Co15  1  0.625000  0.125000  0.625000  1
  B  B16  1  0.834224  0.497328  0.834224  1
  B  B17  1  0.834224  0.834224  0.834224  1
  B  B18  1  0.497328  0.834224  0.834224  1
  B  B19  1  0.834224  0.834224  0.497328  1
  B  B20  1  0.415776  0.415776  0.752672  1
  B  B21  1  0.752672  0.415776  0.415776  1
  B  B22  1  0.415776  0.415776  0.415776  1
  B  B23  1  0.415776  0.752672  0.415776  1
  S  S24  1  1.000000  0.000000  1.000000  1
  S  S25  1  0.250000  0.250000  0.250000  1
  O  O26  1  0.062490  0.812530  0.062490  1
  O  O27  1  0.812530  0.062490  0.062490  1
  O  O28  1  0.062490  0.062490  0.062490  1
  O  O29  1  0.062490  0.062490  0.812530  1
  O  O30  1  0.715923  0.487869  0.992053  1
  O  O31  1  0.992053  0.487869  0.804155  1
  O  O32  1  0.804155  0.715923  0.992053  1
  O  O33  1  0.804155  0.487869  0.715923  1
  O  O34  1  0.487869  0.804155  0.992053  1
  O  O35  1  0.487869  0.715923  0.804155  1
  O  O36  1  0.992053  0.804155  0.715923  1
  O  O37  1  0.715923  0.992053  0.804155  1
  O  O38  1  0.992053  0.715923  0.487869  1
  O  O39  1  0.487869  0.992053  0.715923  1
  O  O40  1  0.715923  0.804155  0.487869  1
  O  O41  1  0.445845  0.257947  0.762131  1
  O  O42  1  0.804155  0.992053  0.487869  1
  O  O43  1  0.534077  0.445845  0.762131  1
  O  O44  1  0.762131  0.257947  0.534077  1
  O  O45  1  0.257947  0.534077  0.762131  1
  O  O46  1  0.534077  0.257947  0.445845  1
  O  O47  1  0.257947  0.445845  0.534077  1
  O  O48  1  0.762131  0.534077  0.445845  1
  O  O49  1  0.762131  0.445845  0.257947  1
  O  O50  1  0.445845  0.762131  0.534077  1
  O  O51  1  0.445845  0.534077  0.257947  1
  O  O52  1  0.257947  0.762131  0.445845  1
  O  O53  1  0.534077  0.762131  0.257947  1
  O  O54  1  0.187510  0.187510  0.437470  1
  O  O55  1  0.437470  0.187510  0.187510  1
  O  O56  1  0.187510  0.187510  0.187510  1
  O  O57  1  0.187510  0.437470  0.187510  1
