# generated using pymatgen
data_Sc7V9O24
_symmetry_space_group_name_H-M   'P 1'
_cell_length_a   8.38269792
_cell_length_b   8.40801255
_cell_length_c   8.46754290
_cell_angle_alpha   109.71716906
_cell_angle_beta   109.50327251
_cell_angle_gamma   108.83902942
_symmetry_Int_Tables_number   1
_chemical_formula_structural   Sc7V9O24
_chemical_formula_sum   'Sc7 V9 O24'
_cell_volume   461.39814529
_cell_formula_units_Z   1
loop_
 _symmetry_equiv_pos_site_id
 _symmetry_equiv_pos_as_xyz
  1  'x, y, z'
loop_
 _atom_site_type_symbol
 _atom_site_label
 _atom_site_symmetry_multiplicity
 _atom_site_fract_x
 _atom_site_fract_y
 _atom_site_fract_z
 _atom_site_occupancy
  Sc  Sc0  1  0.785719  0.534810  0.750609  1
  Sc  Sc1  1  0.747429  0.287922  0.461485  1
  Sc  Sc2  1  0.213306  0.462580  0.250245  1
  Sc  Sc3  1  0.713991  0.964048  0.250573  1
  Sc  Sc4  1  0.039401  0.251696  0.713728  1
  Sc  Sc5  1  0.460659  0.749739  0.785601  1
  Sc  Sc6  1  0.753699  0.787895  0.963031  1
  V  V7  1  0.493455  0.997199  0.005393  1
  V  V8  1  0.249319  0.211273  0.036827  1
  V  V9  1  0.968809  0.751763  0.282074  1
  V  V10  1  0.530904  0.246613  0.219262  1
  V  V11  1  0.287374  0.037342  0.751451  1
  V  V12  1  0.998493  0.500336  0.000132  1
  V  V13  1  0.502528  0.501072  0.497832  1
  V  V14  1  0.250771  0.718325  0.534111  1
  V  V15  1  0.005026  0.999815  0.497738  1
  O  O16  1  0.530563  0.263887  0.959958  1
  O  O17  1  0.722824  0.494551  0.543886  1
  O  O18  1  0.271550  0.231051  0.273782  1
  O  O19  1  0.766259  0.048824  0.962685  1
  O  O20  1  0.996067  0.458136  0.777175  1
  O  O21  1  0.485030  0.270903  0.458370  1
  O  O22  1  0.775083  0.231102  0.233024  1
  O  O23  1  0.971467  0.012168  0.263929  1
  O  O24  1  0.268530  0.263355  0.776615  1
  O  O25  1  0.536687  0.038266  0.729291  1
  O  O26  1  0.756710  0.527210  0.017736  1
  O  O27  1  0.047040  0.769907  0.485491  1
  O  O28  1  0.233543  0.459329  0.989730  1
  O  O29  1  0.954137  0.225228  0.511272  1
  O  O30  1  0.451650  0.966341  0.278437  1
  O  O31  1  0.746959  0.730201  0.225243  1
  O  O32  1  0.223592  0.774771  0.759315  1
  O  O33  1  0.042205  0.991575  0.731224  1
  O  O34  1  0.508763  0.729897  0.536981  1
  O  O35  1  0.008547  0.547357  0.222210  1
  O  O36  1  0.735248  0.771225  0.719520  1
  O  O37  1  0.225944  0.946733  0.043204  1
  O  O38  1  0.277000  0.514891  0.455395  1
  O  O39  1  0.463716  0.730665  0.045441  1
