# generated using pymatgen
data_Li5Co4(Si3O10)2
_symmetry_space_group_name_H-M   'P 1'
_cell_length_a   5.34127216
_cell_length_b   5.41299223
_cell_length_c   17.05125573
_cell_angle_alpha   94.03529951
_cell_angle_beta   90.19008240
_cell_angle_gamma   119.25346145
_symmetry_Int_Tables_number   1
_chemical_formula_structural   Li5Co4(Si3O10)2
_chemical_formula_sum   'Li5 Co4 Si6 O20'
_cell_volume   428.64843803
_cell_formula_units_Z   1
loop_
 _symmetry_equiv_pos_site_id
 _symmetry_equiv_pos_as_xyz
  1  'x, y, z'
loop_
 _atom_site_type_symbol
 _atom_site_label
 _atom_site_symmetry_multiplicity
 _atom_site_fract_x
 _atom_site_fract_y
 _atom_site_fract_z
 _atom_site_occupancy
  Li  Li0  1  0.157801  0.593954  0.761261  1
  Li  Li1  1  0.172032  0.508144  0.446242  1
  Li  Li2  1  0.819409  0.494180  0.551777  1
  Li  Li3  1  0.836919  0.394635  0.249571  1
  Li  Li4  1  0.663967  0.498721  0.045952  1
  Co  Co5  1  0.173110  0.175654  0.581417  1
  Co  Co6  1  0.013231  0.185610  0.082673  1
  Co  Co7  1  0.009361  0.824948  0.911910  1
  Co  Co8  1  0.812748  0.808670  0.408778  1
  Si  Si9  1  0.862075  0.001715  0.748777  1
  Si  Si10  1  0.510501  0.841886  0.602015  1
  Si  Si11  1  0.700292  0.173417  0.901965  1
  Si  Si12  1  0.328644  0.839941  0.098295  1
  Si  Si13  1  0.471335  0.154217  0.403814  1
  Si  Si14  1  0.142124  0.999051  0.249922  1
  O  O15  1  0.099849  0.215498  0.691646  1
  O  O16  1  0.045964  0.187421  0.198687  1
  O  O17  1  0.543577  0.821086  0.698604  1
  O  O18  1  0.796032  0.854992  0.561198  1
  O  O19  1  0.219060  0.556803  0.566872  1
  O  O20  1  0.376421  0.901773  0.897308  1
  O  O21  1  0.911397  0.099347  0.954484  1
  O  O22  1  0.329128  0.543732  0.069505  1
  O  O23  1  0.474470  0.859072  0.413088  1
  O  O24  1  0.833484  0.227871  0.813545  1
  O  O25  1  0.239773  0.809107  0.190121  1
  O  O26  1  0.496068  0.133975  0.588512  1
  O  O27  1  0.712527  0.467157  0.935524  1
  O  O28  1  0.069656  0.862630  0.051656  1
  O  O29  1  0.632602  0.131811  0.088669  1
  O  O30  1  0.770991  0.434426  0.437403  1
  O  O31  1  0.192835  0.148903  0.449486  1
  O  O32  1  0.436000  0.200207  0.308113  1
  O  O33  1  0.935454  0.792625  0.795100  1
  O  O34  1  0.892082  0.766111  0.298162  1
