# generated using pymatgen
data_Na2CoO3
_symmetry_space_group_name_H-M   'P 1'
_cell_length_a   5.42085369
_cell_length_b   5.98825750
_cell_length_c   6.60578166
_cell_angle_alpha   111.78046822
_cell_angle_beta   95.48824425
_cell_angle_gamma   96.24069535
_symmetry_Int_Tables_number   1
_chemical_formula_structural   Na2CoO3
_chemical_formula_sum   'Na4 Co2 O6'
_cell_volume   195.78615594
_cell_formula_units_Z   2
loop_
 _symmetry_equiv_pos_site_id
 _symmetry_equiv_pos_as_xyz
  1  'x, y, z'
loop_
 _atom_site_type_symbol
 _atom_site_label
 _atom_site_symmetry_multiplicity
 _atom_site_fract_x
 _atom_site_fract_y
 _atom_site_fract_z
 _atom_site_occupancy
  Na  Na0  1  0.938875  0.753135  0.572400  1
  Na  Na1  1  0.783704  0.777444  0.016267  1
  Na  Na2  1  0.216296  0.222556  0.983733  1
  Na  Na3  1  0.061125  0.246865  0.427600  1
  Co  Co4  1  0.650114  0.165610  0.667406  1
  Co  Co5  1  0.349886  0.834390  0.332594  1
  O  O6  1  0.786484  0.076027  0.865780  1
  O  O7  1  0.789472  0.449484  0.686884  1
  O  O8  1  0.693764  0.928030  0.379458  1
  O  O9  1  0.306236  0.071970  0.620542  1
  O  O10  1  0.210528  0.550516  0.313116  1
  O  O11  1  0.213516  0.923973  0.134220  1
