# generated using pymatgen
data_H16RhN5(Cl2O)3
_symmetry_space_group_name_H-M   'P 1'
_cell_length_a   9.33784128
_cell_length_b   9.33784128
_cell_length_c   9.33784128
_cell_angle_alpha   43.55410505
_cell_angle_beta   43.55410505
_cell_angle_gamma   43.55410505
_symmetry_Int_Tables_number   1
_chemical_formula_structural   H16RhN5(Cl2O)3
_chemical_formula_sum   'H16 Rh1 N5 Cl6 O3'
_cell_volume   350.78570469
_cell_formula_units_Z   1
loop_
 _symmetry_equiv_pos_site_id
 _symmetry_equiv_pos_as_xyz
  1  'x, y, z'
loop_
 _atom_site_type_symbol
 _atom_site_label
 _atom_site_symmetry_multiplicity
 _atom_site_fract_x
 _atom_site_fract_y
 _atom_site_fract_z
 _atom_site_occupancy
  H  H0  1  0.663231  0.663231  0.663231  1
  H  H1  1  0.336769  0.336769  0.336769  1
  H  H2  1  0.390488  0.247149  0.532496  1
  H  H3  1  0.247149  0.532496  0.390488  1
  H  H4  1  0.532496  0.390488  0.247149  1
  H  H5  1  0.126470  0.126470  0.126470  1
  H  H6  1  0.727856  0.748468  0.982773  1
  H  H7  1  0.748468  0.982773  0.727856  1
  H  H8  1  0.982773  0.727856  0.748468  1
  H  H9  1  0.272144  0.017227  0.251532  1
  H  H10  1  0.017227  0.251532  0.272144  1
  H  H11  1  0.251532  0.272144  0.017227  1
  H  H12  1  0.873530  0.873530  0.873530  1
  H  H13  1  0.609512  0.467504  0.752851  1
  H  H14  1  0.467504  0.752851  0.609512  1
  H  H15  1  0.752851  0.609512  0.467504  1
  Rh  Rh16  1  0.000000  0.000000  0.000000  1
  N  N17  1  0.377712  0.377712  0.377712  1
  N  N18  1  0.832605  0.832605  0.832605  1
  N  N19  1  0.500000  0.500000  0.500000  1
  N  N20  1  0.167395  0.167395  0.167395  1
  N  N21  1  0.622288  0.622288  0.622288  1
  Cl  Cl22  1  0.375151  0.910913  0.885297  1
  Cl  Cl23  1  0.885297  0.375151  0.910913  1
  Cl  Cl24  1  0.910913  0.885297  0.375151  1
  Cl  Cl25  1  0.114703  0.089087  0.624849  1
  Cl  Cl26  1  0.624849  0.114703  0.089087  1
  Cl  Cl27  1  0.089087  0.624849  0.114703  1
  O  O28  1  0.500000  0.683511  0.316489  1
  O  O29  1  0.683511  0.316489  0.500000  1
  O  O30  1  0.316489  0.500000  0.683511  1
