# generated using pymatgen
data_Li6CoNi5O12
_symmetry_space_group_name_H-M   'P 1'
_cell_length_a   4.89213482
_cell_length_b   5.04206364
_cell_length_c   9.87708629
_cell_angle_alpha   95.75731695
_cell_angle_beta   90.64701012
_cell_angle_gamma   117.78485934
_symmetry_Int_Tables_number   1
_chemical_formula_structural   Li6CoNi5O12
_chemical_formula_sum   'Li6 Co1 Ni5 O12'
_cell_volume   213.98869038
_cell_formula_units_Z   1
loop_
 _symmetry_equiv_pos_site_id
 _symmetry_equiv_pos_as_xyz
  1  'x, y, z'
loop_
 _atom_site_type_symbol
 _atom_site_label
 _atom_site_symmetry_multiplicity
 _atom_site_fract_x
 _atom_site_fract_y
 _atom_site_fract_z
 _atom_site_occupancy
  Li  Li0  1  0.146835  0.505479  0.248308  1
  Li  Li1  1  0.521226  0.834966  0.751091  1
  Li  Li2  1  0.181866  0.153853  0.747708  1
  Li  Li3  1  0.818134  0.846147  0.252292  1
  Li  Li4  1  0.478774  0.165034  0.248909  1
  Li  Li5  1  0.853165  0.494521  0.751692  1
  Co  Co6  1  0.000000  0.000000  0.000000  1
  Ni  Ni7  1  0.337754  0.671888  0.999998  1
  Ni  Ni8  1  0.166843  0.333674  0.499658  1
  Ni  Ni9  1  0.500000  0.000000  0.500000  1
  Ni  Ni10  1  0.662246  0.328112  0.000002  1
  Ni  Ni11  1  0.833157  0.666326  0.500342  1
  O  O12  1  0.175096  0.001671  0.390593  1
  O  O13  1  0.157831  0.662811  0.609911  1
  O  O14  1  0.979809  0.302524  0.898278  1
  O  O15  1  0.314358  0.984500  0.887250  1
  O  O16  1  0.685642  0.015500  0.112750  1
  O  O17  1  0.344119  0.337358  0.106719  1
  O  O18  1  0.508091  0.669633  0.389992  1
  O  O19  1  0.491909  0.330367  0.610008  1
  O  O20  1  0.655881  0.662642  0.893281  1
  O  O21  1  0.824904  0.998329  0.609407  1
  O  O22  1  0.020191  0.697476  0.101722  1
  O  O23  1  0.842169  0.337189  0.390089  1
