# generated using pymatgen
data_DyAl3
_symmetry_space_group_name_H-M   'P 1'
_cell_length_a   6.26635868
_cell_length_b   6.26635868
_cell_length_c   4.62756022
_cell_angle_alpha   90.00000000
_cell_angle_beta   90.00000000
_cell_angle_gamma   120.00000000
_symmetry_Int_Tables_number   1
_chemical_formula_structural   DyAl3
_chemical_formula_sum   'Dy2 Al6'
_cell_volume   157.36683527
_cell_formula_units_Z   2
loop_
 _symmetry_equiv_pos_site_id
 _symmetry_equiv_pos_as_xyz
  1  'x, y, z'
loop_
 _atom_site_type_symbol
 _atom_site_label
 _atom_site_symmetry_multiplicity
 _atom_site_fract_x
 _atom_site_fract_y
 _atom_site_fract_z
 _atom_site_occupancy
  Dy  Dy0  1  0.666667  0.333333  0.250000  1
  Dy  Dy1  1  0.333333  0.666667  0.750000  1
  Al  Al2  1  0.852975  0.147025  0.750000  1
  Al  Al3  1  0.294050  0.147025  0.750000  1
  Al  Al4  1  0.852975  0.705950  0.750000  1
  Al  Al5  1  0.147025  0.852975  0.250000  1
  Al  Al6  1  0.705950  0.852975  0.250000  1
  Al  Al7  1  0.147025  0.294050  0.250000  1
