# generated using pymatgen
data_Li5Mn6(BO3)6
_symmetry_space_group_name_H-M   'P 1'
_cell_length_a   8.84757171
_cell_length_b   8.84757171
_cell_length_c   8.23058579
_cell_angle_alpha   62.82799746
_cell_angle_beta   117.17200254
_cell_angle_gamma   137.79643908
_symmetry_Int_Tables_number   1
_chemical_formula_structural   Li5Mn6(BO3)6
_chemical_formula_sum   'Li5 Mn6 B6 O18'
_cell_volume   377.41493565
_cell_formula_units_Z   1
loop_
 _symmetry_equiv_pos_site_id
 _symmetry_equiv_pos_as_xyz
  1  'x, y, z'
loop_
 _atom_site_type_symbol
 _atom_site_label
 _atom_site_symmetry_multiplicity
 _atom_site_fract_x
 _atom_site_fract_y
 _atom_site_fract_z
 _atom_site_occupancy
  Li  Li0  1  0.390822  0.609178  0.984721  1
  Li  Li1  1  0.891202  0.108798  0.980421  1
  Li  Li2  1  0.602095  0.397905  0.722682  1
  Li  Li3  1  0.759266  0.240734  0.300774  1
  Li  Li4  1  0.259473  0.740527  0.299486  1
  Mn  Mn5  1  0.692523  0.811353  0.368456  1
  Mn  Mn6  1  0.188647  0.307477  0.368456  1
  Mn  Mn7  1  0.992643  0.513686  0.631163  1
  Mn  Mn8  1  0.486314  0.007357  0.631163  1
  Mn  Mn9  1  0.316591  0.179075  0.000034  1
  Mn  Mn10  1  0.820925  0.683409  0.000034  1
  B  B11  1  0.415801  0.584199  0.667457  1
  B  B12  1  0.909494  0.090506  0.659782  1
  B  B13  1  0.508415  0.000804  0.007799  1
  B  B14  1  0.582168  0.417832  0.331622  1
  B  B15  1  0.999196  0.491585  0.007799  1
  B  B16  1  0.084308  0.915692  0.324963  1
  O  O17  1  0.560024  0.939796  0.924278  1
  O  O18  1  0.060204  0.439976  0.924278  1
  O  O19  1  0.470046  0.529954  0.860422  1
  O  O20  1  0.968153  0.031847  0.850819  1
  O  O21  1  0.813691  0.186309  0.587147  1
  O  O22  1  0.319991  0.680009  0.583057  1
  O  O23  1  0.428618  0.110375  0.899237  1
  O  O24  1  0.889625  0.571382  0.899237  1
  O  O25  1  0.460186  0.539814  0.560217  1
  O  O26  1  0.943679  0.056321  0.535891  1
  O  O27  1  0.543631  0.952657  0.202324  1
  O  O28  1  0.047343  0.456369  0.202324  1
  O  O29  1  0.636366  0.363634  0.524951  1
  O  O30  1  0.140889  0.859111  0.515156  1
  O  O31  1  0.484924  0.515076  0.254041  1
  O  O32  1  0.987506  0.012494  0.250255  1
  O  O33  1  0.621736  0.378264  0.217524  1
  O  O34  1  0.122202  0.877798  0.205978  1
