# generated using pymatgen
data_Fe10O9F11
_symmetry_space_group_name_H-M   'P 1'
_cell_length_a   4.76371409
_cell_length_b   15.49485318
_cell_length_c   4.77024661
_cell_angle_alpha   90.00000000
_cell_angle_beta   91.45759017
_cell_angle_gamma   90.00000000
_symmetry_Int_Tables_number   1
_chemical_formula_structural   Fe10O9F11
_chemical_formula_sum   'Fe10 O9 F11'
_cell_volume   351.99252140
_cell_formula_units_Z   1
loop_
 _symmetry_equiv_pos_site_id
 _symmetry_equiv_pos_as_xyz
  1  'x, y, z'
loop_
 _atom_site_type_symbol
 _atom_site_label
 _atom_site_symmetry_multiplicity
 _atom_site_fract_x
 _atom_site_fract_y
 _atom_site_fract_z
 _atom_site_occupancy
  Fe  Fe0  1  0.024981  0.294020  0.042971  1
  Fe  Fe1  1  0.987936  0.500000  0.985391  1
  Fe  Fe2  1  0.024981  0.705980  0.042971  1
  Fe  Fe3  1  0.949617  0.901250  0.997162  1
  Fe  Fe4  1  0.949617  0.098750  0.997162  1
  Fe  Fe5  1  0.483377  0.406611  0.490341  1
  Fe  Fe6  1  0.527061  0.797964  0.479561  1
  Fe  Fe7  1  0.483377  0.593389  0.490341  1
  Fe  Fe8  1  0.536780  0.000000  0.501275  1
  Fe  Fe9  1  0.527061  0.202036  0.479561  1
  O  O10  1  0.811519  0.800896  0.192645  1
  O  O11  1  0.795802  0.000000  0.188221  1
  O  O12  1  0.811519  0.199104  0.192645  1
  O  O13  1  0.683335  0.500000  0.684333  1
  O  O14  1  0.684074  0.897922  0.684272  1
  O  O15  1  0.684074  0.102078  0.684272  1
  O  O16  1  0.319847  0.299275  0.319918  1
  O  O17  1  0.289377  0.500000  0.299017  1
  O  O18  1  0.319847  0.700725  0.319918  1
  F  F19  1  0.802628  0.391221  0.201909  1
  F  F20  1  0.802628  0.608779  0.201909  1
  F  F21  1  0.712240  0.299663  0.707382  1
  F  F22  1  0.712240  0.700337  0.707382  1
  F  F23  1  0.298554  0.900872  0.293814  1
  F  F24  1  0.298554  0.099128  0.293814  1
  F  F25  1  0.197315  0.388545  0.805713  1
  F  F26  1  0.199223  0.802284  0.806160  1
  F  F27  1  0.197315  0.611455  0.805713  1
  F  F28  1  0.199223  0.197716  0.806160  1
  F  F29  1  0.185898  0.000000  0.798069  1
