# generated using pymatgen
data_Li2Sn(PO3)4
_symmetry_space_group_name_H-M   'P 1'
_cell_length_a   9.16522932
_cell_length_b   9.16522932
_cell_length_c   7.39143712
_cell_angle_alpha   89.09456022
_cell_angle_beta   90.90543978
_cell_angle_gamma   60.60118870
_symmetry_Int_Tables_number   1
_chemical_formula_structural   Li2Sn(PO3)4
_chemical_formula_sum   'Li4 Sn2 P8 O24'
_cell_volume   540.66999587
_cell_formula_units_Z   2
loop_
 _symmetry_equiv_pos_site_id
 _symmetry_equiv_pos_as_xyz
  1  'x, y, z'
loop_
 _atom_site_type_symbol
 _atom_site_label
 _atom_site_symmetry_multiplicity
 _atom_site_fract_x
 _atom_site_fract_y
 _atom_site_fract_z
 _atom_site_occupancy
  Li  Li0  1  0.486310  0.201384  0.182236  1
  Li  Li1  1  0.798616  0.513690  0.682236  1
  Li  Li2  1  0.201384  0.486310  0.317764  1
  Li  Li3  1  0.513690  0.798616  0.817764  1
  Sn  Sn4  1  0.869113  0.869113  0.250000  1
  Sn  Sn5  1  0.130887  0.130887  0.750000  1
  P  P6  1  0.926252  0.226776  0.322405  1
  P  P7  1  0.773224  0.073748  0.822405  1
  P  P8  1  0.782069  0.545452  0.116177  1
  P  P9  1  0.454548  0.217931  0.616177  1
  P  P10  1  0.545452  0.782069  0.383823  1
  P  P11  1  0.217931  0.454548  0.883823  1
  P  P12  1  0.226776  0.926252  0.177595  1
  P  P13  1  0.073748  0.773224  0.677595  1
  O  O14  1  0.841596  0.122291  0.340715  1
  O  O15  1  0.877709  0.158404  0.840715  1
  O  O16  1  0.934152  0.320588  0.485173  1
  O  O17  1  0.679412  0.065848  0.985173  1
  O  O18  1  0.838881  0.350831  0.150350  1
  O  O19  1  0.649169  0.161119  0.650350  1
  O  O20  1  0.919730  0.580041  0.178495  1
  O  O21  1  0.419959  0.080270  0.678495  1
  O  O22  1  0.408918  0.289433  0.426252  1
  O  O23  1  0.116202  0.116202  0.250000  1
  O  O24  1  0.626039  0.626039  0.250000  1
  O  O25  1  0.710567  0.591082  0.926252  1
  O  O26  1  0.289433  0.408918  0.073748  1
  O  O27  1  0.373961  0.373961  0.750000  1
  O  O28  1  0.883798  0.883798  0.750000  1
  O  O29  1  0.591082  0.710567  0.573748  1
  O  O30  1  0.580041  0.919730  0.321505  1
  O  O31  1  0.080270  0.419959  0.821505  1
  O  O32  1  0.350831  0.838881  0.349650  1
  O  O33  1  0.161119  0.649169  0.849650  1
  O  O34  1  0.320588  0.934152  0.014827  1
  O  O35  1  0.065848  0.679412  0.514827  1
  O  O36  1  0.122291  0.841596  0.159285  1
  O  O37  1  0.158404  0.877709  0.659285  1
