# generated using pymatgen
data_LaPO4
_symmetry_space_group_name_H-M   'P 1'
_cell_length_a   7.26527587
_cell_length_b   7.26527587
_cell_length_c   6.50230497
_cell_angle_alpha   90.00000000
_cell_angle_beta   90.00000000
_cell_angle_gamma   120.00000000
_symmetry_Int_Tables_number   1
_chemical_formula_structural   LaPO4
_chemical_formula_sum   'La3 P3 O12'
_cell_volume   297.23653221
_cell_formula_units_Z   3
loop_
 _symmetry_equiv_pos_site_id
 _symmetry_equiv_pos_as_xyz
  1  'x, y, z'
loop_
 _atom_site_type_symbol
 _atom_site_label
 _atom_site_symmetry_multiplicity
 _atom_site_fract_x
 _atom_site_fract_y
 _atom_site_fract_z
 _atom_site_occupancy
  La  La0  1  0.000000  0.500000  0.666667  1
  La  La1  1  0.500000  0.500000  0.333333  1
  La  La2  1  0.500000  0.000000  0.000000  1
  P  P3  1  0.000000  0.500000  0.166667  1
  P  P4  1  0.500000  0.500000  0.833333  1
  P  P5  1  0.500000  0.000000  0.500000  1
  O  O6  1  0.447110  0.310828  0.979515  1
  O  O7  1  0.689172  0.136282  0.646182  1
  O  O8  1  0.863718  0.552890  0.312849  1
  O  O9  1  0.136282  0.447110  0.312849  1
  O  O10  1  0.552890  0.863718  0.353818  1
  O  O11  1  0.552890  0.689172  0.979515  1
  O  O12  1  0.447110  0.136282  0.353818  1
  O  O13  1  0.310828  0.447110  0.687151  1
  O  O14  1  0.136282  0.689172  0.020485  1
  O  O15  1  0.863718  0.310828  0.020485  1
  O  O16  1  0.689172  0.552890  0.687151  1
  O  O17  1  0.310828  0.863718  0.646182  1
