# generated using pymatgen
data_Mn4O7F
_symmetry_space_group_name_H-M   'P 1'
_cell_length_a   7.00010229
_cell_length_b   4.96270917
_cell_length_c   7.17883663
_cell_angle_alpha   90.00000000
_cell_angle_beta   101.75950030
_cell_angle_gamma   90.00000000
_symmetry_Int_Tables_number   1
_chemical_formula_structural   Mn4O7F
_chemical_formula_sum   'Mn8 O14 F2'
_cell_volume   244.15474017
_cell_formula_units_Z   2
loop_
 _symmetry_equiv_pos_site_id
 _symmetry_equiv_pos_as_xyz
  1  'x, y, z'
loop_
 _atom_site_type_symbol
 _atom_site_label
 _atom_site_symmetry_multiplicity
 _atom_site_fract_x
 _atom_site_fract_y
 _atom_site_fract_z
 _atom_site_occupancy
  Mn  Mn0  1  0.824038  0.264342  0.935984  1
  Mn  Mn1  1  0.171857  0.745716  0.587128  1
  Mn  Mn2  1  0.324069  0.261941  0.930129  1
  Mn  Mn3  1  0.672341  0.728526  0.567081  1
  Mn  Mn4  1  0.828143  0.245716  0.412872  1
  Mn  Mn5  1  0.175962  0.764342  0.064016  1
  Mn  Mn6  1  0.675931  0.761941  0.069871  1
  Mn  Mn7  1  0.327659  0.228526  0.432919  1
  O  O8  1  0.190251  0.935592  0.834061  1
  O  O9  1  0.076721  0.434945  0.935011  1
  O  O10  1  0.577760  0.089672  0.938629  1
  O  O11  1  0.078845  0.066471  0.441966  1
  O  O12  1  0.690704  0.583687  0.828870  1
  O  O13  1  0.921155  0.566471  0.558034  1
  O  O14  1  0.690118  0.914067  0.328246  1
  O  O15  1  0.577121  0.405890  0.440366  1
  O  O16  1  0.923279  0.934945  0.064989  1
  O  O17  1  0.809749  0.435592  0.165939  1
  O  O18  1  0.309882  0.414067  0.671754  1
  O  O19  1  0.422879  0.905890  0.559634  1
  O  O20  1  0.309296  0.083687  0.171130  1
  O  O21  1  0.422240  0.589672  0.061371  1
  F  F22  1  0.190010  0.569151  0.316481  1
  F  F23  1  0.809990  0.069151  0.683519  1
