# generated using pymatgen
data_Li5Mn6(BO3)6
_symmetry_space_group_name_H-M   'P 1'
_cell_length_a   8.81138774
_cell_length_b   8.87269048
_cell_length_c   10.47346929
_cell_angle_alpha   98.84830308
_cell_angle_beta   98.50440904
_cell_angle_gamma   107.88670250
_symmetry_Int_Tables_number   1
_chemical_formula_structural   Li5Mn6(BO3)6
_chemical_formula_sum   'Li10 Mn12 B12 O36'
_cell_volume   753.21245433
_cell_formula_units_Z   2
loop_
 _symmetry_equiv_pos_site_id
 _symmetry_equiv_pos_as_xyz
  1  'x, y, z'
loop_
 _atom_site_type_symbol
 _atom_site_label
 _atom_site_symmetry_multiplicity
 _atom_site_fract_x
 _atom_site_fract_y
 _atom_site_fract_z
 _atom_site_occupancy
  Li  Li0  1  0.207457  0.913725  0.189246  1
  Li  Li1  1  0.906305  0.187880  0.205872  1
  Li  Li2  1  0.505804  0.522748  0.227316  1
  Li  Li3  1  0.455431  0.152571  0.438756  1
  Li  Li4  1  0.152526  0.437201  0.452581  1
  Li  Li5  1  0.703858  0.405865  0.690030  1
  Li  Li6  1  0.399460  0.683570  0.704926  1
  Li  Li7  1  0.013612  0.028822  0.733800  1
  Li  Li8  1  0.659893  0.938661  0.953300  1
  Li  Li9  1  0.258890  0.278859  0.981236  1
  Mn  Mn10  1  0.820104  0.805527  0.189631  1
  Mn  Mn11  1  0.523637  0.167453  0.151924  1
  Mn  Mn12  1  0.146496  0.537658  0.155744  1
  Mn  Mn13  1  0.769336  0.425279  0.410459  1
  Mn  Mn14  1  0.418099  0.767444  0.414304  1
  Mn  Mn15  1  0.068873  0.060173  0.436490  1
  Mn  Mn16  1  0.015433  0.665402  0.659941  1
  Mn  Mn17  1  0.655023  0.022411  0.660018  1
  Mn  Mn18  1  0.323111  0.307738  0.685007  1
  Mn  Mn19  1  0.271760  0.908849  0.905401  1
  Mn  Mn20  1  0.899311  0.277561  0.909152  1
  Mn  Mn21  1  0.591016  0.564262  0.926279  1
  B  B22  1  0.464047  0.791693  0.124004  1
  B  B23  1  0.797418  0.471668  0.133429  1
  B  B24  1  0.002867  0.006085  0.005079  1
  B  B25  1  0.246262  0.253725  0.250945  1
  B  B26  1  0.707192  0.044914  0.362817  1
  B  B27  1  0.041247  0.702515  0.366946  1
  B  B28  1  0.489835  0.487156  0.499002  1
  B  B29  1  0.290206  0.952054  0.622798  1
  B  B30  1  0.957674  0.292893  0.624801  1
  B  B31  1  0.744162  0.752783  0.749178  1
  B  B32  1  0.219119  0.540994  0.881779  1
  B  B33  1  0.542213  0.206545  0.877546  1
  O  O34  1  0.873629  0.984375  0.073050  1
  O  O35  1  0.479039  0.915597  0.058114  1
  O  O36  1  0.105337  0.918178  0.019020  1
  O  O37  1  0.814960  0.604781  0.073734  1
  O  O38  1  0.574285  0.707468  0.127106  1
  O  O39  1  0.909444  0.388847  0.124169  1
  O  O40  1  0.336520  0.747382  0.191719  1
  O  O41  1  0.673340  0.423255  0.199733  1
  O  O42  1  0.275170  0.369257  0.172017  1
  O  O43  1  0.812609  0.956715  0.343818  1
  O  O44  1  0.043375  0.825597  0.295578  1
  O  O45  1  0.722296  0.175402  0.302767  1
  O  O46  1  0.339725  0.152006  0.259324  1
  O  O47  1  0.940105  0.668592  0.451849  1
  O  O48  1  0.147548  0.613490  0.346189  1
  O  O49  1  0.518419  0.589488  0.412395  1
  O  O50  1  0.122753  0.238270  0.321940  1
  O  O51  1  0.593613  0.004769  0.440941  1
  O  O52  1  0.974133  0.413922  0.553688  1
  O  O53  1  0.578263  0.381552  0.511131  1
  O  O54  1  0.395755  0.863582  0.611488  1
  O  O55  1  0.368774  0.484768  0.572315  1
  O  O56  1  0.794819  0.882246  0.689719  1
  O  O57  1  0.298723  0.074655  0.552276  1
  O  O58  1  0.815372  0.634138  0.743909  1
  O  O59  1  0.838581  0.263186  0.700187  1
  O  O60  1  0.178243  0.919946  0.704205  1
  O  O61  1  0.058877  0.199162  0.621855  1
  O  O62  1  0.616363  0.741557  0.818540  1
  O  O63  1  0.219969  0.658302  0.809484  1
  O  O64  1  0.556079  0.329928  0.807625  1
  O  O65  1  0.324550  0.453994  0.874183  1
  O  O66  1  0.649499  0.120453  0.871719  1
  O  O67  1  0.423277  0.170774  0.952534  1
  O  O68  1  0.107014  0.501907  0.964404  1
  O  O69  1  0.030989  0.122532  0.926597  1
