# generated using pymatgen
data_LiFeP2HO7
_symmetry_space_group_name_H-M   'P 1'
_cell_length_a   6.57173042
_cell_length_b   8.74544335
_cell_length_c   9.94681315
_cell_angle_alpha   89.58400299
_cell_angle_beta   108.73967455
_cell_angle_gamma   102.00290552
_symmetry_Int_Tables_number   1
_chemical_formula_structural   LiFeP2HO7
_chemical_formula_sum   'Li4 Fe4 P8 H4 O28'
_cell_volume   528.43351908
_cell_formula_units_Z   4
loop_
 _symmetry_equiv_pos_site_id
 _symmetry_equiv_pos_as_xyz
  1  'x, y, z'
loop_
 _atom_site_type_symbol
 _atom_site_label
 _atom_site_symmetry_multiplicity
 _atom_site_fract_x
 _atom_site_fract_y
 _atom_site_fract_z
 _atom_site_occupancy
  Li  Li0  1  0.281500  0.031234  0.373086  1
  Li  Li1  1  0.718500  0.968766  0.626914  1
  Li  Li2  1  0.323065  0.508898  0.878464  1
  Li  Li3  1  0.676935  0.491102  0.121536  1
  Fe  Fe4  1  0.164598  0.414380  0.310539  1
  Fe  Fe5  1  0.391758  0.972797  0.774476  1
  Fe  Fe6  1  0.835402  0.585620  0.689461  1
  Fe  Fe7  1  0.608242  0.027203  0.225524  1
  P  P8  1  0.211283  0.246140  0.638816  1
  P  P9  1  0.788717  0.753860  0.361184  1
  P  P10  1  0.232632  0.706169  0.554559  1
  P  P11  1  0.259383  0.231794  0.073473  1
  P  P12  1  0.767368  0.293831  0.445441  1
  P  P13  1  0.740617  0.768206  0.926527  1
  P  P14  1  0.173152  0.742341  0.127452  1
  P  P15  1  0.826848  0.257659  0.872548  1
  H  H16  1  0.556191  0.692152  0.485902  1
  H  H17  1  0.600128  0.214544  0.003713  1
  H  H18  1  0.443809  0.307848  0.514098  1
  H  H19  1  0.399872  0.785456  0.996287  1
  O  O20  1  0.286793  0.240276  0.499823  1
  O  O21  1  0.629332  0.124137  0.424984  1
  O  O22  1  0.855748  0.922460  0.320495  1
  O  O23  1  0.629228  0.637609  0.249867  1
  O  O24  1  0.144252  0.077540  0.679505  1
  O  O25  1  0.664908  0.135784  0.758143  1
  O  O26  1  0.370668  0.875863  0.575016  1
  O  O27  1  0.713207  0.759724  0.500177  1
  O  O28  1  0.012516  0.694754  0.421288  1
  O  O29  1  0.837787  0.335004  0.314180  1
  O  O30  1  0.342934  0.591534  0.500730  1
  O  O31  1  0.029424  0.172908  0.943843  1
  O  O32  1  0.791116  0.782177  0.784866  1
  O  O33  1  0.403229  0.114344  0.059402  1
  O  O34  1  0.657066  0.408466  0.499270  1
  O  O35  1  0.162213  0.664996  0.685820  1
  O  O36  1  0.987484  0.305246  0.578712  1
  O  O37  1  0.596771  0.885656  0.940598  1
  O  O38  1  0.208884  0.217823  0.215134  1
  O  O39  1  0.970576  0.827092  0.056157  1
  O  O40  1  0.260061  0.714620  0.000934  1
  O  O41  1  0.639474  0.604862  0.950350  1
  O  O42  1  0.370772  0.362391  0.750133  1
  O  O43  1  0.913484  0.413876  0.822563  1
  O  O44  1  0.335092  0.864216  0.241857  1
  O  O45  1  0.086516  0.586124  0.177437  1
  O  O46  1  0.360526  0.395138  0.049650  1
  O  O47  1  0.739939  0.285380  0.999066  1
