# generated using pymatgen
data_Li2MnV(P2O7)2
_symmetry_space_group_name_H-M   'P 1'
_cell_length_a   4.86000713
_cell_length_b   7.08394961
_cell_length_c   8.33303638
_cell_angle_alpha   88.33240803
_cell_angle_beta   89.45673359
_cell_angle_gamma   71.36674816
_symmetry_Int_Tables_number   1
_chemical_formula_structural   Li2MnV(P2O7)2
_chemical_formula_sum   'Li2 Mn1 V1 P4 O14'
_cell_volume   271.73713620
_cell_formula_units_Z   1
loop_
 _symmetry_equiv_pos_site_id
 _symmetry_equiv_pos_as_xyz
  1  'x, y, z'
loop_
 _atom_site_type_symbol
 _atom_site_label
 _atom_site_symmetry_multiplicity
 _atom_site_fract_x
 _atom_site_fract_y
 _atom_site_fract_z
 _atom_site_occupancy
  Li  Li0  1  0.172932  0.329471  0.859129  1
  Li  Li1  1  0.825959  0.668922  0.356385  1
  Mn  Mn2  1  0.790544  0.729074  0.998815  1
  V  V3  1  0.210351  0.275452  0.499061  1
  P  P4  1  0.403625  0.476898  0.175146  1
  P  P5  1  0.219596  0.908755  0.785337  1
  P  P6  1  0.784383  0.086944  0.289571  1
  P  P7  1  0.600347  0.519389  0.681401  1
  O  O8  1  0.042017  0.156728  0.327243  1
  O  O9  1  0.142989  0.110604  0.697635  1
  O  O10  1  0.189663  0.521590  0.033401  1
  O  O11  1  0.248081  0.494793  0.337304  1
  O  O12  1  0.388213  0.398893  0.675431  1
  O  O13  1  0.593816  0.089976  0.438662  1
  O  O14  1  0.593922  0.246804  0.153534  1
  O  O15  1  0.406530  0.751766  0.657174  1
  O  O16  1  0.405079  0.904385  0.934533  1
  O  O17  1  0.609040  0.603491  0.171633  1
  O  O18  1  0.755533  0.494328  0.841865  1
  O  O19  1  0.808462  0.486984  0.537081  1
  O  O20  1  0.865587  0.887291  0.208761  1
  O  O21  1  0.943330  0.857460  0.826479  1
