# generated using pymatgen
data_BaTbF6
_symmetry_space_group_name_H-M   'P 1'
_cell_length_a   7.28030617
_cell_length_b   7.28030617
_cell_length_c   5.50927574
_cell_angle_alpha   90.00000000
_cell_angle_beta   90.00000000
_cell_angle_gamma   113.54104536
_symmetry_Int_Tables_number   1
_chemical_formula_structural   BaTbF6
_chemical_formula_sum   'Ba2 Tb2 F12'
_cell_volume   267.70480877
_cell_formula_units_Z   2
loop_
 _symmetry_equiv_pos_site_id
 _symmetry_equiv_pos_as_xyz
  1  'x, y, z'
loop_
 _atom_site_type_symbol
 _atom_site_label
 _atom_site_symmetry_multiplicity
 _atom_site_fract_x
 _atom_site_fract_y
 _atom_site_fract_z
 _atom_site_occupancy
  Ba  Ba0  1  0.750000  0.750000  0.580227  1
  Ba  Ba1  1  0.250000  0.250000  0.419773  1
  Tb  Tb2  1  0.250000  0.750000  0.000000  1
  Tb  Tb3  1  0.750000  0.250000  1.000000  1
  F  F4  1  0.160485  0.944325  0.744493  1
  F  F5  1  0.339515  0.555675  0.744493  1
  F  F6  1  0.444325  0.660485  0.255507  1
  F  F7  1  0.055675  0.839515  0.255507  1
  F  F8  1  0.556361  0.943639  0.815383  1
  F  F9  1  0.943639  0.556361  0.815383  1
  F  F10  1  0.443639  0.056361  0.184617  1
  F  F11  1  0.056361  0.443639  0.184617  1
  F  F12  1  0.944325  0.160485  0.744493  1
  F  F13  1  0.555675  0.339515  0.744493  1
  F  F14  1  0.660485  0.444325  0.255507  1
  F  F15  1  0.839515  0.055675  0.255507  1
