# generated using pymatgen
data_Na6Mn2As(CO4)4
_symmetry_space_group_name_H-M   'P 1'
_cell_length_a   10.09216326
_cell_length_b   10.09216326
_cell_length_c   10.09216326
_cell_angle_alpha   60.00000000
_cell_angle_beta   60.00000000
_cell_angle_gamma   60.00000000
_symmetry_Int_Tables_number   1
_chemical_formula_structural   Na6Mn2As(CO4)4
_chemical_formula_sum   'Na12 Mn4 As2 C8 O32'
_cell_volume   726.83830094
_cell_formula_units_Z   2
loop_
 _symmetry_equiv_pos_site_id
 _symmetry_equiv_pos_as_xyz
  1  'x, y, z'
loop_
 _atom_site_type_symbol
 _atom_site_label
 _atom_site_symmetry_multiplicity
 _atom_site_fract_x
 _atom_site_fract_y
 _atom_site_fract_z
 _atom_site_occupancy
  Na  Na0  1  0.540000  0.960000  0.960000  1
  Na  Na1  1  0.710000  0.290000  0.710000  1
  Na  Na2  1  0.540000  0.540000  0.960000  1
  Na  Na3  1  0.960000  0.960000  0.540000  1
  Na  Na4  1  0.290000  0.710000  0.710000  1
  Na  Na5  1  0.290000  0.710000  0.290000  1
  Na  Na6  1  0.960000  0.540000  0.540000  1
  Na  Na7  1  0.960000  0.540000  0.960000  1
  Na  Na8  1  0.710000  0.710000  0.290000  1
  Na  Na9  1  0.290000  0.290000  0.710000  1
  Na  Na10  1  0.540000  0.960000  0.540000  1
  Na  Na11  1  0.710000  0.290000  0.290000  1
  Mn  Mn12  1  0.125000  0.625000  0.125000  1
  Mn  Mn13  1  0.125000  0.125000  0.125000  1
  Mn  Mn14  1  0.625000  0.125000  0.125000  1
  Mn  Mn15  1  0.125000  0.125000  0.625000  1
  As  As16  1  0.750000  0.750000  0.750000  1
  As  As17  1  0.500000  0.500000  0.500000  1
  C  C18  1  0.341937  0.974190  0.341937  1
  C  C19  1  0.341937  0.341937  0.341937  1
  C  C20  1  0.341937  0.341937  0.974190  1
  C  C21  1  0.974190  0.341937  0.341937  1
  C  C22  1  0.275810  0.908063  0.908063  1
  C  C23  1  0.908063  0.908063  0.275810  1
  C  C24  1  0.908063  0.908063  0.908063  1
  C  C25  1  0.908063  0.275810  0.908063  1
  O  O26  1  0.768846  0.022494  0.931077  1
  O  O27  1  0.931077  0.277582  0.768846  1
  O  O28  1  0.481154  0.972418  0.227506  1
  O  O29  1  0.227506  0.972418  0.318923  1
  O  O30  1  0.958970  0.680343  0.680343  1
  O  O31  1  0.481154  0.318923  0.972418  1
  O  O32  1  0.318923  0.227506  0.972418  1
  O  O33  1  0.680343  0.680343  0.680343  1
  O  O34  1  0.680343  0.680343  0.958970  1
  O  O35  1  0.227506  0.318923  0.481154  1
  O  O36  1  0.318923  0.481154  0.227506  1
  O  O37  1  0.680343  0.958970  0.680343  1
  O  O38  1  0.972418  0.227506  0.481154  1
  O  O39  1  0.227506  0.481154  0.972418  1
  O  O40  1  0.972418  0.318923  0.227506  1
  O  O41  1  0.277582  0.768846  0.931077  1
  O  O42  1  0.972418  0.481154  0.318923  1
  O  O43  1  0.277582  0.931077  0.022494  1
  O  O44  1  0.022494  0.768846  0.277582  1
  O  O45  1  0.277582  0.022494  0.768846  1
  O  O46  1  0.569657  0.291030  0.569657  1
  O  O47  1  0.931077  0.768846  0.022494  1
  O  O48  1  0.022494  0.931077  0.768846  1
  O  O49  1  0.569657  0.569657  0.291030  1
  O  O50  1  0.569657  0.569657  0.569657  1
  O  O51  1  0.931077  0.022494  0.277582  1
  O  O52  1  0.768846  0.931077  0.277582  1
  O  O53  1  0.291030  0.569657  0.569657  1
  O  O54  1  0.022494  0.277582  0.931077  1
  O  O55  1  0.768846  0.277582  0.022494  1
  O  O56  1  0.318923  0.972418  0.481154  1
  O  O57  1  0.481154  0.227506  0.318923  1
