# generated using pymatgen
data_LiFe8(BO3)8
_symmetry_space_group_name_H-M   'P 1'
_cell_length_a   5.22315818
_cell_length_b   5.25035330
_cell_length_c   20.19616675
_cell_angle_alpha   89.43293167
_cell_angle_beta   89.48373616
_cell_angle_gamma   61.10228623
_symmetry_Int_Tables_number   1
_chemical_formula_structural   LiFe8(BO3)8
_chemical_formula_sum   'Li1 Fe8 B8 O24'
_cell_volume   484.85562609
_cell_formula_units_Z   1
loop_
 _symmetry_equiv_pos_site_id
 _symmetry_equiv_pos_as_xyz
  1  'x, y, z'
loop_
 _atom_site_type_symbol
 _atom_site_label
 _atom_site_symmetry_multiplicity
 _atom_site_fract_x
 _atom_site_fract_y
 _atom_site_fract_z
 _atom_site_occupancy
  Li  Li0  1  0.669189  0.356151  0.078697  1
  Fe  Fe1  1  0.678623  0.980737  0.188345  1
  Fe  Fe2  1  0.676562  0.993350  0.688453  1
  Fe  Fe3  1  0.007884  0.685051  0.061209  1
  Fe  Fe4  1  0.996937  0.672534  0.563797  1
  Fe  Fe5  1  0.003369  0.326330  0.439356  1
  Fe  Fe6  1  0.002177  0.326637  0.939023  1
  Fe  Fe7  1  0.326956  0.004316  0.315099  1
  Fe  Fe8  1  0.325554  0.001979  0.814014  1
  B  B9  1  0.339243  0.004174  0.063836  1
  B  B10  1  0.339491  0.002790  0.563572  1
  B  B11  1  0.010396  0.331527  0.187787  1
  B  B12  1  0.005224  0.336125  0.688294  1
  B  B13  1  0.999252  0.661458  0.314311  1
  B  B14  1  0.998034  0.656967  0.813318  1
  B  B15  1  0.661765  0.995518  0.438898  1
  B  B16  1  0.662690  0.995339  0.937816  1
  O  O17  1  0.271111  0.122265  0.216775  1
  O  O18  1  0.270380  0.125595  0.715497  1
  O  O19  1  0.091114  0.255129  0.040316  1
  O  O20  1  0.576878  0.033629  0.087926  1
  O  O21  1  0.128682  0.268852  0.536618  1
  O  O22  1  0.596359  0.989011  0.588175  1
  O  O23  1  0.986699  0.594363  0.167224  1
  O  O24  1  0.705507  0.228600  0.436977  1
  O  O25  1  0.992518  0.593212  0.663593  1
  O  O26  1  0.696435  0.236227  0.941039  1
  O  O27  1  0.784861  0.275659  0.176982  1
  O  O28  1  0.771793  0.292074  0.685683  1
  O  O29  1  0.235036  0.702263  0.316445  1
  O  O30  1  0.231122  0.702307  0.815713  1
  O  O31  1  0.353756  0.740222  0.064663  1
  O  O32  1  0.008826  0.405129  0.338482  1
  O  O33  1  0.295106  0.770095  0.565015  1
  O  O34  1  0.008554  0.400026  0.837060  1
  O  O35  1  0.404101  0.009616  0.414393  1
  O  O36  1  0.401137  0.015169  0.914170  1
  O  O37  1  0.872415  0.729937  0.465712  1
  O  O38  1  0.879954  0.727708  0.960066  1
  O  O39  1  0.733477  0.876809  0.287810  1
  O  O40  1  0.732362  0.869894  0.786262  1
