# generated using pymatgen
data_Cr2S3
_symmetry_space_group_name_H-M   'P 1'
_cell_length_a   6.51849272
_cell_length_b   6.51849272
_cell_length_c   6.51849272
_cell_angle_alpha   53.90961555
_cell_angle_beta   53.90961555
_cell_angle_gamma   53.90961555
_symmetry_Int_Tables_number   1
_chemical_formula_structural   Cr2S3
_chemical_formula_sum   'Cr4 S6'
_cell_volume   167.98102575
_cell_formula_units_Z   2
loop_
 _symmetry_equiv_pos_site_id
 _symmetry_equiv_pos_as_xyz
  1  'x, y, z'
loop_
 _atom_site_type_symbol
 _atom_site_label
 _atom_site_symmetry_multiplicity
 _atom_site_fract_x
 _atom_site_fract_y
 _atom_site_fract_z
 _atom_site_occupancy
  Cr  Cr0  1  0.673593  0.673593  0.673593  1
  Cr  Cr1  1  0.495719  0.495719  0.495719  1
  Cr  Cr2  1  0.999591  0.999591  0.999591  1
  Cr  Cr3  1  0.330096  0.330096  0.330096  1
  S  S4  1  0.588504  0.909601  0.258190  1
  S  S5  1  0.747885  0.406357  0.090463  1
  S  S6  1  0.258190  0.588504  0.909601  1
  S  S7  1  0.406357  0.090463  0.747885  1
  S  S8  1  0.090463  0.747885  0.406357  1
  S  S9  1  0.909601  0.258190  0.588504  1
