# generated using pymatgen
data_Li3V4(OF3)3
_symmetry_space_group_name_H-M   'P 1'
_cell_length_a   5.18967937
_cell_length_b   5.54213388
_cell_length_c   17.28372039
_cell_angle_alpha   88.97683264
_cell_angle_beta   97.46133680
_cell_angle_gamma   117.48653339
_symmetry_Int_Tables_number   1
_chemical_formula_structural   Li3V4(OF3)3
_chemical_formula_sum   'Li6 V8 O6 F18'
_cell_volume   436.76354840
_cell_formula_units_Z   2
loop_
 _symmetry_equiv_pos_site_id
 _symmetry_equiv_pos_as_xyz
  1  'x, y, z'
loop_
 _atom_site_type_symbol
 _atom_site_label
 _atom_site_symmetry_multiplicity
 _atom_site_fract_x
 _atom_site_fract_y
 _atom_site_fract_z
 _atom_site_occupancy
  Li  Li0  1  0.935271  0.552171  0.316771  1
  Li  Li1  1  0.635910  0.325097  0.941151  1
  Li  Li2  1  0.327517  0.102313  0.548324  1
  Li  Li3  1  0.803971  0.828472  0.799176  1
  Li  Li4  1  0.687227  0.918622  0.449961  1
  Li  Li5  1  0.433329  0.826161  0.072325  1
  V  V6  1  0.979062  0.018018  0.002937  1
  V  V7  1  0.747906  0.379138  0.128207  1
  V  V8  1  0.533785  0.249277  0.750585  1
  V  V9  1  0.503911  0.726026  0.247226  1
  V  V10  1  0.758401  0.894908  0.632071  1
  V  V11  1  0.248466  0.117013  0.380735  1
  V  V12  1  0.036179  0.515127  0.494923  1
  V  V13  1  0.214181  0.609194  0.870386  1
  O  O14  1  0.788782  0.204703  0.033317  1
  O  O15  1  0.701782  0.039178  0.720231  1
  O  O16  1  0.687507  0.534505  0.216457  1
  O  O17  1  0.809366  0.419048  0.846651  1
  O  O18  1  0.171665  0.271718  0.467214  1
  O  O19  1  0.274999  0.835992  0.441889  1
  F  F20  1  0.727184  0.051660  0.187467  1
  F  F21  1  0.742885  0.192365  0.558110  1
  F  F22  1  0.719408  0.680412  0.056304  1
  F  F23  1  0.703579  0.351229  0.399119  1
  F  F24  1  0.831792  0.738785  0.532389  1
  F  F25  1  0.800302  0.870494  0.348633  1
  F  F26  1  0.311694  0.132245  0.093000  1
  F  F27  1  0.774200  0.588037  0.693035  1
  F  F28  1  0.226603  0.420865  0.308326  1
  F  F29  1  0.670426  0.846694  0.903268  1
  F  F30  1  0.208963  0.108564  0.653123  1
  F  F31  1  0.191304  0.599511  0.148150  1
  F  F32  1  0.344517  0.484258  0.782573  1
  F  F33  1  0.331708  0.678047  0.592760  1
  F  F34  1  0.292911  0.926702  0.285516  1
  F  F35  1  0.255080  0.313220  0.937868  1
  F  F36  1  0.238050  0.940732  0.815896  1
  F  F37  1  0.171975  0.782008  0.971478  1
