# generated using pymatgen
data_ZrAsRu
_symmetry_space_group_name_H-M   'P 1'
_cell_length_a   6.64120255
_cell_length_b   6.64120255
_cell_length_c   3.94438360
_cell_angle_alpha   90.00000000
_cell_angle_beta   90.00000000
_cell_angle_gamma   120.00000000
_symmetry_Int_Tables_number   1
_chemical_formula_structural   ZrAsRu
_chemical_formula_sum   'Zr3 As3 Ru3'
_cell_volume   150.66182653
_cell_formula_units_Z   3
loop_
 _symmetry_equiv_pos_site_id
 _symmetry_equiv_pos_as_xyz
  1  'x, y, z'
loop_
 _atom_site_type_symbol
 _atom_site_label
 _atom_site_symmetry_multiplicity
 _atom_site_fract_x
 _atom_site_fract_y
 _atom_site_fract_z
 _atom_site_occupancy
  Zr  Zr0  1  0.417714  0.417714  0.000000  1
  Zr  Zr1  1  0.582286  0.000000  0.000000  1
  Zr  Zr2  1  0.000000  0.582286  0.000000  1
  As  As3  1  0.000000  0.000000  0.000000  1
  As  As4  1  0.666667  0.333333  0.500000  1
  As  As5  1  0.333333  0.666667  0.500000  1
  Ru  Ru6  1  0.000000  0.243703  0.500000  1
  Ru  Ru7  1  0.243703  0.000000  0.500000  1
  Ru  Ru8  1  0.756297  0.756297  0.500000  1
