# generated using pymatgen
data_Li3V2P4(HO8)2
_symmetry_space_group_name_H-M   'P 1'
_cell_length_a   7.87551407
_cell_length_b   9.43296665
_cell_length_c   9.43360937
_cell_angle_alpha   117.80308879
_cell_angle_beta   100.99184641
_cell_angle_gamma   101.17057786
_symmetry_Int_Tables_number   1
_chemical_formula_structural   Li3V2P4(HO8)2
_chemical_formula_sum   'Li6 V4 P8 H4 O32'
_cell_volume   575.39397913
_cell_formula_units_Z   2
loop_
 _symmetry_equiv_pos_site_id
 _symmetry_equiv_pos_as_xyz
  1  'x, y, z'
loop_
 _atom_site_type_symbol
 _atom_site_label
 _atom_site_symmetry_multiplicity
 _atom_site_fract_x
 _atom_site_fract_y
 _atom_site_fract_z
 _atom_site_occupancy
  Li  Li0  1  0.353243  0.631004  0.906197  1
  Li  Li1  1  0.653748  0.366923  0.586804  1
  Li  Li2  1  0.852057  0.871230  0.792151  1
  Li  Li3  1  0.155552  0.134995  0.208376  1
  Li  Li4  1  0.345413  0.636597  0.406888  1
  Li  Li5  1  0.844058  0.864240  0.297327  1
  V  V6  1  0.488199  0.002397  0.745574  1
  V  V7  1  0.997355  0.499162  0.000134  1
  V  V8  1  0.003814  0.494383  0.506432  1
  V  V9  1  0.500672  0.005987  0.248055  1
  P  P10  1  0.269318  0.347478  0.393272  1
  P  P11  1  0.265428  0.351438  0.891120  1
  P  P12  1  0.229695  0.850036  0.504912  1
  P  P13  1  0.233041  0.848737  0.007737  1
  P  P14  1  0.760220  0.152000  0.491400  1
  P  P15  1  0.764379  0.157583  0.986041  1
  P  P16  1  0.733550  0.652333  0.607230  1
  P  P17  1  0.739725  0.654751  0.105546  1
  H  H18  1  0.497166  0.506013  0.747192  1
  H  H19  1  0.516907  0.506721  0.235145  1
  H  H20  1  0.982352  0.008799  0.509846  1
  H  H21  1  0.993072  0.010570  0.000997  1
  O  O22  1  0.054686  0.938418  0.938402  1
  O  O23  1  0.354726  0.947762  0.886993  1
  O  O24  1  0.645024  0.175691  0.810103  1
  O  O25  1  0.687514  0.820728  0.939727  1
  O  O26  1  0.153747  0.456207  0.918237  1
  O  O27  1  0.164430  0.449609  0.417558  1
  O  O28  1  0.318703  0.171947  0.549475  1
  O  O29  1  0.349893  0.828925  0.685036  1
  O  O30  1  0.436897  0.457259  0.862459  1
  O  O31  1  0.447647  0.443604  0.370283  1
  O  O32  1  0.652399  0.046049  0.623256  1
  O  O33  1  0.808003  0.318288  0.487145  1
  O  O34  1  0.821320  0.328359  0.973685  1
  O  O35  1  0.050891  0.943354  0.432263  1
  O  O36  1  0.140571  0.329506  0.740026  1
  O  O37  1  0.145108  0.327864  0.235289  1
  O  O38  1  0.851329  0.674118  0.764766  1
  O  O39  1  0.851615  0.673918  0.262574  1
  O  O40  1  0.937145  0.046925  0.574437  1
  O  O41  1  0.190834  0.680223  0.512734  1
  O  O42  1  0.190959  0.678845  0.011655  1
  O  O43  1  0.339682  0.957050  0.382038  1
  O  O44  1  0.552028  0.557585  0.629223  1
  O  O45  1  0.556588  0.560886  0.124093  1
  O  O46  1  0.644103  0.169827  0.318655  1
  O  O47  1  0.687898  0.819623  0.443578  1
  O  O48  1  0.838523  0.544298  0.589508  1
  O  O49  1  0.857850  0.554559  0.085615  1
  O  O50  1  0.309423  0.184965  0.054891  1
  O  O51  1  0.353670  0.828232  0.183683  1
  O  O52  1  0.665161  0.050496  0.115909  1
  O  O53  1  0.946532  0.059158  0.061340  1
