# generated using pymatgen
data_V3(O2F)2
_symmetry_space_group_name_H-M   'P 1'
_cell_length_a   5.59326423
_cell_length_b   5.59543172
_cell_length_c   7.37805858
_cell_angle_alpha   71.54890816
_cell_angle_beta   71.65473712
_cell_angle_gamma   70.86346311
_symmetry_Int_Tables_number   1
_chemical_formula_structural   V3(O2F)2
_chemical_formula_sum   'V6 O8 F4'
_cell_volume   201.11813011
_cell_formula_units_Z   2
loop_
 _symmetry_equiv_pos_site_id
 _symmetry_equiv_pos_as_xyz
  1  'x, y, z'
loop_
 _atom_site_type_symbol
 _atom_site_label
 _atom_site_symmetry_multiplicity
 _atom_site_fract_x
 _atom_site_fract_y
 _atom_site_fract_z
 _atom_site_occupancy
  V  V0  1  0.678480  0.700866  0.841014  1
  V  V1  1  0.328092  0.342812  0.672354  1
  V  V2  1  0.646568  0.649690  0.320846  1
  V  V3  1  0.319573  0.330287  0.168825  1
  V  V4  1  0.999469  0.001730  0.495614  1
  V  V5  1  0.030318  0.983707  0.000273  1
  O  O6  1  0.022901  0.646687  0.669780  1
  O  O7  1  0.367475  0.954065  0.334275  1
  O  O8  1  0.229873  0.229278  0.965248  1
  O  O9  1  0.769483  0.768630  0.035862  1
  O  O10  1  0.427645  0.431285  0.373050  1
  O  O11  1  0.321582  0.687378  0.991537  1
  O  O12  1  0.638433  0.033599  0.671891  1
  O  O13  1  0.944529  0.372112  0.335051  1
  F  F14  1  0.571499  0.574732  0.632788  1
  F  F15  1  0.893849  0.890165  0.299234  1
  F  F16  1  0.103581  0.102876  0.699010  1
  F  F17  1  0.706648  0.300101  0.993352  1
