# generated using pymatgen
data_MnH12S2(NO5)2
_symmetry_space_group_name_H-M   'P 1'
_cell_length_a   6.25248749
_cell_length_b   5.44113881
_cell_length_c   15.52282045
_cell_angle_alpha   90.00000000
_cell_angle_beta   92.43708488
_cell_angle_gamma   90.00000000
_symmetry_Int_Tables_number   1
_chemical_formula_structural   MnH12S2(NO5)2
_chemical_formula_sum   'Mn2 H24 S4 N4 O20'
_cell_volume   527.61882326
_cell_formula_units_Z   2
loop_
 _symmetry_equiv_pos_site_id
 _symmetry_equiv_pos_as_xyz
  1  'x, y, z'
loop_
 _atom_site_type_symbol
 _atom_site_label
 _atom_site_symmetry_multiplicity
 _atom_site_fract_x
 _atom_site_fract_y
 _atom_site_fract_z
 _atom_site_occupancy
  Mn  Mn0  1  0.000000  0.500000  0.000000  1
  Mn  Mn1  1  0.000000  0.000000  0.500000  1
  H  H2  1  0.136666  0.392560  0.287245  1
  H  H3  1  0.201613  0.780455  0.127603  1
  H  H4  1  0.136666  0.107440  0.787245  1
  H  H5  1  0.201613  0.719545  0.627603  1
  H  H6  1  0.216030  0.934833  0.041241  1
  H  H7  1  0.216030  0.565167  0.541241  1
  H  H8  1  0.313467  0.303212  0.433143  1
  H  H9  1  0.313467  0.196788  0.933143  1
  H  H10  1  0.403100  0.417960  0.283624  1
  H  H11  1  0.398480  0.284437  0.029014  1
  H  H12  1  0.403100  0.082040  0.783624  1
  H  H13  1  0.398480  0.215563  0.529014  1
  H  H14  1  0.601520  0.784437  0.470986  1
  H  H15  1  0.596900  0.917960  0.216376  1
  H  H16  1  0.601520  0.715563  0.970986  1
  H  H17  1  0.596900  0.582040  0.716376  1
  H  H18  1  0.686533  0.803212  0.066857  1
  H  H19  1  0.686533  0.696788  0.566857  1
  H  H20  1  0.783970  0.434833  0.458759  1
  H  H21  1  0.783970  0.065167  0.958759  1
  H  H22  1  0.798387  0.280455  0.372397  1
  H  H23  1  0.863334  0.892560  0.212755  1
  H  H24  1  0.798387  0.219545  0.872397  1
  H  H25  1  0.863334  0.607440  0.712755  1
  S  S26  1  0.254044  0.766095  0.325913  1
  S  S27  1  0.254044  0.733905  0.825913  1
  S  S28  1  0.745956  0.266095  0.174087  1
  S  S29  1  0.745956  0.233905  0.674087  1
  N  N30  1  0.272423  0.458356  0.319302  1
  N  N31  1  0.272423  0.041644  0.819302  1
  N  N32  1  0.727577  0.958356  0.180698  1
  N  N33  1  0.727577  0.541644  0.680698  1
  O  O34  1  0.067303  0.808127  0.379475  1
  O  O35  1  0.067303  0.691873  0.879475  1
  O  O36  1  0.214597  0.869016  0.238806  1
  O  O37  1  0.206444  0.765439  0.064305  1
  O  O38  1  0.214597  0.630984  0.738806  1
  O  O39  1  0.206444  0.734561  0.564305  1
  O  O40  1  0.272011  0.267780  0.493160  1
  O  O41  1  0.272011  0.232220  0.993160  1
  O  O42  1  0.458495  0.843937  0.365648  1
  O  O43  1  0.458495  0.656063  0.865648  1
  O  O44  1  0.541505  0.343937  0.134352  1
  O  O45  1  0.541505  0.156063  0.634352  1
  O  O46  1  0.727989  0.767780  0.006840  1
  O  O47  1  0.727989  0.732220  0.506840  1
  O  O48  1  0.793556  0.265439  0.435695  1
  O  O49  1  0.785403  0.369016  0.261194  1
  O  O50  1  0.793556  0.234561  0.935695  1
  O  O51  1  0.785403  0.130984  0.761194  1
  O  O52  1  0.932697  0.308127  0.120525  1
  O  O53  1  0.932697  0.191873  0.620525  1
