# generated using pymatgen
data_LiVPO4
_symmetry_space_group_name_H-M   'P 1'
_cell_length_a   8.45395298
_cell_length_b   8.45395298
_cell_length_c   8.45395298
_cell_angle_alpha   34.31157256
_cell_angle_beta   34.31157256
_cell_angle_gamma   34.31157256
_symmetry_Int_Tables_number   1
_chemical_formula_structural   LiVPO4
_chemical_formula_sum   'Li2 V2 P2 O8'
_cell_volume   171.21891476
_cell_formula_units_Z   2
loop_
 _symmetry_equiv_pos_site_id
 _symmetry_equiv_pos_as_xyz
  1  'x, y, z'
loop_
 _atom_site_type_symbol
 _atom_site_label
 _atom_site_symmetry_multiplicity
 _atom_site_fract_x
 _atom_site_fract_y
 _atom_site_fract_z
 _atom_site_occupancy
  Li  Li0  1  0.717499  0.717499  0.717499  1
  Li  Li1  1  0.282501  0.282501  0.282501  1
  V  V2  1  0.838929  0.838929  0.838929  1
  V  V3  1  0.161071  0.161071  0.161071  1
  P  P4  1  0.423227  0.423227  0.423227  1
  P  P5  1  0.576773  0.576773  0.576773  1
  O  O6  1  0.863968  0.268528  0.530662  1
  O  O7  1  0.731472  0.469338  0.136032  1
  O  O8  1  0.136032  0.731472  0.469338  1
  O  O9  1  0.360244  0.360244  0.360244  1
  O  O10  1  0.530662  0.863968  0.268528  1
  O  O11  1  0.268528  0.530662  0.863968  1
  O  O12  1  0.469338  0.136032  0.731472  1
  O  O13  1  0.639756  0.639756  0.639756  1
