# generated using pymatgen
data_Li5Mn6(BO3)6
_symmetry_space_group_name_H-M   'P 1'
_cell_length_a   5.22387746
_cell_length_b   5.93879462
_cell_length_c   13.45885962
_cell_angle_alpha   97.19129206
_cell_angle_beta   91.56257466
_cell_angle_gamma   112.77156610
_symmetry_Int_Tables_number   1
_chemical_formula_structural   Li5Mn6(BO3)6
_chemical_formula_sum   'Li5 Mn6 B6 O18'
_cell_volume   380.65703362
_cell_formula_units_Z   1
loop_
 _symmetry_equiv_pos_site_id
 _symmetry_equiv_pos_as_xyz
  1  'x, y, z'
loop_
 _atom_site_type_symbol
 _atom_site_label
 _atom_site_symmetry_multiplicity
 _atom_site_fract_x
 _atom_site_fract_y
 _atom_site_fract_z
 _atom_site_occupancy
  Li  Li0  1  0.475290  0.778670  0.458032  1
  Li  Li1  1  0.141449  0.114451  0.791486  1
  Li  Li2  1  0.850781  0.860316  0.207071  1
  Li  Li3  1  0.526245  0.218846  0.540060  1
  Li  Li4  1  0.190614  0.555051  0.873886  1
  Mn  Mn5  1  0.338312  0.485121  0.248444  1
  Mn  Mn6  1  0.012812  0.824749  0.585769  1
  Mn  Mn7  1  0.677658  0.166098  0.923258  1
  Mn  Mn8  1  0.308085  0.827551  0.078896  1
  Mn  Mn9  1  0.990576  0.176197  0.415226  1
  Mn  Mn10  1  0.655822  0.507562  0.749632  1
  B  B11  1  0.244137  0.286485  0.022707  1
  B  B12  1  0.905552  0.621773  0.361545  1
  B  B13  1  0.576620  0.955121  0.694446  1
  B  B14  1  0.421297  0.043895  0.304588  1
  B  B15  1  0.093478  0.380486  0.641478  1
  B  B16  1  0.761941  0.717396  0.975868  1
  O  O17  1  0.422146  0.168666  0.044712  1
  O  O18  1  0.130693  0.551351  0.378315  1
  O  O19  1  0.758780  0.559100  0.270216  1
  O  O20  1  0.441054  0.896533  0.599400  1
  O  O21  1  0.235244  0.473018  0.095531  1
  O  O22  1  0.844878  0.767785  0.440056  1
  O  O23  1  0.504045  0.091998  0.772449  1
  O  O24  1  0.799200  0.885027  0.713123  1
  O  O25  1  0.914019  0.800311  0.067132  1
  O  O26  1  0.104015  0.233319  0.929571  1
  O  O27  1  0.198895  0.114842  0.286429  1
  O  O28  1  0.484361  0.899576  0.226462  1
  O  O29  1  0.170196  0.246421  0.564713  1
  O  O30  1  0.821882  0.566505  0.900631  1
  O  O31  1  0.558861  0.100848  0.399298  1
  O  O32  1  0.228981  0.441480  0.737033  1
  O  O33  1  0.867540  0.446001  0.623201  1
  O  O34  1  0.535277  0.783966  0.957339  1
