# generated using pymatgen
data_Li5Mn6(BO3)6
_symmetry_space_group_name_H-M   'P 1'
_cell_length_a   5.29730051
_cell_length_b   5.93024776
_cell_length_c   13.24580767
_cell_angle_alpha   97.77036722
_cell_angle_beta   90.74756284
_cell_angle_gamma   113.16559090
_symmetry_Int_Tables_number   1
_chemical_formula_structural   Li5Mn6(BO3)6
_chemical_formula_sum   'Li5 Mn6 B6 O18'
_cell_volume   378.04179483
_cell_formula_units_Z   1
loop_
 _symmetry_equiv_pos_site_id
 _symmetry_equiv_pos_as_xyz
  1  'x, y, z'
loop_
 _atom_site_type_symbol
 _atom_site_label
 _atom_site_symmetry_multiplicity
 _atom_site_fract_x
 _atom_site_fract_y
 _atom_site_fract_z
 _atom_site_occupancy
  Li  Li0  1  0.260073  0.697449  0.354429  1
  Li  Li1  1  0.397961  0.656676  0.978983  1
  Li  Li2  1  0.602541  0.341612  0.022485  1
  Li  Li3  1  0.735013  0.324246  0.642878  1
  Li  Li4  1  0.938732  0.012658  0.687040  1
  Mn  Mn5  1  0.562454  0.961923  0.204343  1
  Mn  Mn6  1  0.115286  0.378080  0.137597  1
  Mn  Mn7  1  0.779413  0.719216  0.463209  1
  Mn  Mn8  1  0.227937  0.289781  0.525914  1
  Mn  Mn9  1  0.885468  0.622055  0.862146  1
  Mn  Mn10  1  0.448208  0.041065  0.802784  1
  B  B11  1  0.347970  0.837508  0.576776  1
  B  B12  1  0.984162  0.826865  0.087390  1
  B  B13  1  0.676607  0.501839  0.245890  1
  B  B14  1  0.320170  0.491581  0.753517  1
  B  B15  1  0.014780  0.173308  0.911352  1
  B  B16  1  0.655986  0.165224  0.426526  1
  O  O17  1  0.122147  0.901468  0.572762  1
  O  O18  1  0.212603  0.764780  0.095737  1
  O  O19  1  0.953481  0.004612  0.159209  1
  O  O20  1  0.554553  0.949849  0.653857  1
  O  O21  1  0.779229  0.703234  0.009306  1
  O  O22  1  0.370292  0.667551  0.496228  1
  O  O23  1  0.462788  0.583939  0.240622  1
  O  O24  1  0.295079  0.658243  0.834510  1
  O  O25  1  0.872880  0.587353  0.325806  1
  O  O26  1  0.114983  0.381659  0.675377  1
  O  O27  1  0.694033  0.329813  0.165145  1
  O  O28  1  0.548832  0.430932  0.754978  1
  O  O29  1  0.643279  0.355164  0.501735  1
  O  O30  1  0.222985  0.286888  0.988225  1
  O  O31  1  0.457765  0.054883  0.348850  1
  O  O32  1  0.039264  0.005663  0.830487  1
  O  O33  1  0.784071  0.230264  0.910058  1
  O  O34  1  0.863402  0.083685  0.443427  1
