# generated using pymatgen
data_Li3Co2OF5
_symmetry_space_group_name_H-M   'P 1'
_cell_length_a   9.82595848
_cell_length_b   9.36945686
_cell_length_c   5.16897700
_cell_angle_alpha   79.31701876
_cell_angle_beta   69.55605975
_cell_angle_gamma   31.12692149
_symmetry_Int_Tables_number   1
_chemical_formula_structural   Li3Co2OF5
_chemical_formula_sum   'Li6 Co4 O2 F10'
_cell_volume   224.07107438
_cell_formula_units_Z   2
loop_
 _symmetry_equiv_pos_site_id
 _symmetry_equiv_pos_as_xyz
  1  'x, y, z'
loop_
 _atom_site_type_symbol
 _atom_site_label
 _atom_site_symmetry_multiplicity
 _atom_site_fract_x
 _atom_site_fract_y
 _atom_site_fract_z
 _atom_site_occupancy
  Li  Li0  1  0.250000  0.250000  0.250000  1
  Li  Li1  1  0.667949  0.667949  0.332051  1
  Li  Li2  1  0.000000  0.000000  0.000000  1
  Li  Li3  1  0.573133  0.573133  0.926867  1
  Li  Li4  1  0.926867  0.926867  0.573133  1
  Li  Li5  1  0.332051  0.332051  0.667949  1
  Co  Co6  1  0.750000  0.750000  0.750000  1
  Co  Co7  1  0.500000  0.500000  0.500000  1
  Co  Co8  1  0.173881  0.173881  0.826119  1
  Co  Co9  1  0.826119  0.826119  0.173881  1
  O  O10  1  0.509795  0.990205  0.509795  1
  O  O11  1  0.990205  0.509795  0.990205  1
  F  F12  1  0.915633  0.418620  0.577862  1
  F  F13  1  0.264547  0.735453  0.264547  1
  F  F14  1  0.818478  0.344571  0.142704  1
  F  F15  1  0.418620  0.915633  0.087885  1
  F  F16  1  0.344571  0.818478  0.694247  1
  F  F17  1  0.735453  0.264547  0.735453  1
  F  F18  1  0.142704  0.694247  0.818478  1
  F  F19  1  0.577862  0.087885  0.915633  1
  F  F20  1  0.694247  0.142704  0.344571  1
  F  F21  1  0.087885  0.577862  0.418620  1
