# generated using pymatgen
data_Ta6Pb4O19
_symmetry_space_group_name_H-M   'P 1'
_cell_length_a   13.03906882
_cell_length_b   13.03906882
_cell_length_c   13.03906882
_cell_angle_alpha   146.48587399
_cell_angle_beta   131.77371771
_cell_angle_gamma   60.00395888
_symmetry_Int_Tables_number   1
_chemical_formula_structural   Ta6Pb4O19
_chemical_formula_sum   'Ta12 Pb8 O38'
_cell_volume   904.52854270
_cell_formula_units_Z   2
loop_
 _symmetry_equiv_pos_site_id
 _symmetry_equiv_pos_as_xyz
  1  'x, y, z'
loop_
 _atom_site_type_symbol
 _atom_site_label
 _atom_site_symmetry_multiplicity
 _atom_site_fract_x
 _atom_site_fract_y
 _atom_site_fract_z
 _atom_site_occupancy
  Ta  Ta0  1  0.168059  0.665252  0.002808  1
  Ta  Ta1  1  1.000000  0.500000  0.000000  1
  Ta  Ta2  1  0.831920  0.331920  0.500000  1
  Ta  Ta3  1  0.168080  0.668080  0.500000  1
  Ta  Ta4  1  0.831920  0.831920  0.000000  1
  Ta  Ta5  1  0.168080  0.168080  0.000000  1
  Ta  Ta6  1  0.662444  0.165252  0.997192  1
  Ta  Ta7  1  0.831941  0.334748  0.997192  1
  Ta  Ta8  1  0.500000  0.000000  0.000000  1
  Ta  Ta9  1  0.500000  0.000000  0.500000  1
  Ta  Ta10  1  0.500000  0.500000  0.000000  1
  Ta  Ta11  1  0.337556  0.834748  0.002808  1
  Pb  Pb12  1  0.182484  0.166134  0.516350  1
  Pb  Pb13  1  0.000000  0.000000  0.500000  1
  Pb  Pb14  1  1.000000  0.500000  0.500000  1
  Pb  Pb15  1  0.000000  0.000000  0.000000  1
  Pb  Pb16  1  0.817516  0.833866  0.483650  1
  Pb  Pb17  1  0.649784  0.666134  0.483650  1
  Pb  Pb18  1  0.500000  0.500000  0.500000  1
  Pb  Pb19  1  0.350216  0.333866  0.516350  1
  O  O20  1  0.099534  0.283383  0.925516  1
  O  O21  1  0.099534  0.674018  0.316150  1
  O  O22  1  0.138612  0.583659  0.054953  1
  O  O23  1  0.157543  0.250000  0.407543  1
  O  O24  1  0.900466  0.325983  0.683850  1
  O  O25  1  0.020014  0.837775  0.064589  1
  O  O26  1  0.900466  0.716617  0.074484  1
  O  O27  1  0.020014  0.455425  0.682239  1
  O  O28  1  0.895839  0.080790  0.315050  1
  O  O29  1  0.765740  0.580790  0.684950  1
  O  O30  1  0.104161  0.919210  0.684950  1
  O  O31  1  0.979986  0.162225  0.935411  1
  O  O32  1  0.773186  0.337775  0.317761  1
  O  O33  1  0.642133  0.825983  0.925516  1
  O  O34  1  0.642133  0.216617  0.316150  1
  O  O35  1  0.773186  0.955425  0.935411  1
  O  O36  1  0.842457  0.750000  0.592457  1
  O  O37  1  0.979986  0.544575  0.317761  1
  O  O38  1  0.818916  0.250000  0.068916  1
  O  O39  1  0.528707  0.083659  0.945047  1
  O  O40  1  0.861388  0.416341  0.945047  1
  O  O41  1  0.566280  0.998199  0.686891  1
  O  O42  1  0.688692  0.120611  0.686891  1
  O  O43  1  0.566280  0.379389  0.068081  1
  O  O44  1  0.357867  0.174018  0.074484  1
  O  O45  1  0.357867  0.783383  0.683850  1
  O  O46  1  0.688692  0.501801  0.068081  1
  O  O47  1  0.564917  0.750000  0.314917  1
  O  O48  1  0.435083  0.250000  0.685083  1
  O  O49  1  0.433720  0.001801  0.313109  1
  O  O50  1  0.433720  0.620611  0.931919  1
  O  O51  1  0.311308  0.879389  0.313109  1
  O  O52  1  0.311308  0.498199  0.931919  1
  O  O53  1  0.471293  0.916341  0.054953  1
  O  O54  1  0.181084  0.750000  0.931084  1
  O  O55  1  0.226814  0.662225  0.682239  1
  O  O56  1  0.226814  0.044575  0.064589  1
  O  O57  1  0.234260  0.419210  0.315050  1
