# generated using pymatgen
data_Li2Fe3P4(HO4)4
_symmetry_space_group_name_H-M   'P 1'
_cell_length_a   8.86729360
_cell_length_b   8.18650796
_cell_length_c   9.11082365
_cell_angle_alpha   90.00000000
_cell_angle_beta   99.79645197
_cell_angle_gamma   90.00000000
_symmetry_Int_Tables_number   1
_chemical_formula_structural   Li2Fe3P4(HO4)4
_chemical_formula_sum   'Li4 Fe6 P8 H8 O32'
_cell_volume   651.73058278
_cell_formula_units_Z   2
loop_
 _symmetry_equiv_pos_site_id
 _symmetry_equiv_pos_as_xyz
  1  'x, y, z'
loop_
 _atom_site_type_symbol
 _atom_site_label
 _atom_site_symmetry_multiplicity
 _atom_site_fract_x
 _atom_site_fract_y
 _atom_site_fract_z
 _atom_site_occupancy
  Li  Li0  1  0.002033  0.333306  0.971713  1
  Li  Li1  1  0.002033  0.166694  0.471713  1
  Li  Li2  1  0.997967  0.833306  0.528287  1
  Li  Li3  1  0.997967  0.666694  0.028287  1
  Fe  Fe4  1  0.500000  0.500000  0.000000  1
  Fe  Fe5  1  0.644167  0.141100  0.993698  1
  Fe  Fe6  1  0.355833  0.641100  0.506302  1
  Fe  Fe7  1  0.500000  0.000000  0.500000  1
  Fe  Fe8  1  0.644167  0.358900  0.493698  1
  Fe  Fe9  1  0.355833  0.858900  0.006302  1
  P  P10  1  0.176850  0.561302  0.771357  1
  P  P11  1  0.612948  0.801256  0.796402  1
  P  P12  1  0.387052  0.301256  0.703598  1
  P  P13  1  0.823150  0.061302  0.728643  1
  P  P14  1  0.176850  0.938698  0.271357  1
  P  P15  1  0.612948  0.698744  0.296402  1
  P  P16  1  0.387052  0.198744  0.203598  1
  P  P17  1  0.823150  0.438698  0.228643  1
  H  H18  1  0.116563  0.994780  0.787409  1
  H  H19  1  0.283878  0.033899  0.766891  1
  H  H20  1  0.716122  0.533899  0.733109  1
  H  H21  1  0.883437  0.494780  0.712591  1
  H  H22  1  0.116563  0.505220  0.287409  1
  H  H23  1  0.283878  0.466101  0.266891  1
  H  H24  1  0.716122  0.966101  0.233109  1
  H  H25  1  0.883437  0.005220  0.212591  1
  O  O26  1  0.313720  0.629187  0.880515  1
  O  O27  1  0.222926  0.994084  0.842685  1
  O  O28  1  0.546436  0.925648  0.892341  1
  O  O29  1  0.038423  0.533409  0.850369  1
  O  O30  1  0.487740  0.290845  0.858846  1
  O  O31  1  0.650182  0.635249  0.870058  1
  O  O32  1  0.857634  0.159226  0.873911  1
  O  O33  1  0.221404  0.374653  0.728157  1
  O  O34  1  0.778596  0.874653  0.771843  1
  O  O35  1  0.142366  0.659226  0.626089  1
  O  O36  1  0.349818  0.135249  0.629942  1
  O  O37  1  0.512260  0.790845  0.641154  1
  O  O38  1  0.961577  0.033409  0.649631  1
  O  O39  1  0.453564  0.425648  0.607659  1
  O  O40  1  0.777074  0.494084  0.657315  1
  O  O41  1  0.686280  0.129187  0.619485  1
  O  O42  1  0.313720  0.870813  0.380515  1
  O  O43  1  0.222926  0.505916  0.342685  1
  O  O44  1  0.546436  0.574352  0.392341  1
  O  O45  1  0.038423  0.966591  0.350369  1
  O  O46  1  0.487740  0.209155  0.358846  1
  O  O47  1  0.650182  0.864751  0.370058  1
  O  O48  1  0.857634  0.340774  0.373911  1
  O  O49  1  0.221404  0.125347  0.228157  1
  O  O50  1  0.778596  0.625347  0.271843  1
  O  O51  1  0.142366  0.840774  0.126089  1
  O  O52  1  0.349818  0.364751  0.129942  1
  O  O53  1  0.512260  0.709155  0.141154  1
  O  O54  1  0.961577  0.466591  0.149631  1
  O  O55  1  0.453564  0.074352  0.107659  1
  O  O56  1  0.777074  0.005916  0.157315  1
  O  O57  1  0.686280  0.370813  0.119485  1
