# generated using pymatgen
data_Co3(AsO4)2
_symmetry_space_group_name_H-M   'P 1'
_cell_length_a   10.65690862
_cell_length_b   10.65690862
_cell_length_c   10.65690862
_cell_angle_alpha   141.86999838
_cell_angle_beta   141.86999838
_cell_angle_gamma   55.02467307
_symmetry_Int_Tables_number   1
_chemical_formula_structural   Co3(AsO4)2
_chemical_formula_sum   'Co9 As6 O24'
_cell_volume   458.11479660
_cell_formula_units_Z   3
loop_
 _symmetry_equiv_pos_site_id
 _symmetry_equiv_pos_as_xyz
  1  'x, y, z'
loop_
 _atom_site_type_symbol
 _atom_site_label
 _atom_site_symmetry_multiplicity
 _atom_site_fract_x
 _atom_site_fract_y
 _atom_site_fract_z
 _atom_site_occupancy
  Co  Co0  1  0.129931  0.630127  0.007830  1
  Co  Co1  1  0.225590  0.225590  0.000000  1
  Co  Co2  1  0.750000  0.250000  0.500000  1
  Co  Co3  1  0.877900  0.870069  0.500196  1
  Co  Co4  1  0.622297  0.122100  0.992170  1
  Co  Co5  1  0.478508  0.978508  0.500000  1
  Co  Co6  1  0.021492  0.521492  0.500000  1
  Co  Co7  1  0.774410  0.774410  0.000000  1
  Co  Co8  1  0.369873  0.377703  0.499804  1
  As  As9  1  0.000000  0.000000  0.000000  1
  As  As10  1  0.628200  0.531703  0.406708  1
  As  As11  1  0.124995  0.221492  0.593292  1
  As  As12  1  0.468297  0.875005  0.096497  1
  As  As13  1  0.250000  0.750000  0.500000  1
  As  As14  1  0.778508  0.371800  0.903503  1
  O  O15  1  0.166337  0.902458  0.157402  1
  O  O16  1  0.441677  0.676371  0.328892  1
  O  O17  1  0.807008  0.623874  0.731733  1
  O  O18  1  0.924725  0.192992  0.816865  1
  O  O19  1  0.145635  0.455624  0.718415  1
  O  O20  1  0.077267  0.308082  0.778704  1
  O  O21  1  0.529378  0.298563  0.221296  1
  O  O22  1  0.737209  0.427220  0.281585  1
  O  O23  1  0.376126  0.107860  0.183135  1
  O  O24  1  0.991065  0.833663  0.736121  1
  O  O25  1  0.572780  0.854365  0.309989  1
  O  O26  1  0.347479  0.112786  0.671108  1
  O  O27  1  0.892140  0.075275  0.268267  1
  O  O28  1  0.701437  0.922733  0.230815  1
  O  O29  1  0.146626  0.917638  0.651020  1
  O  O30  1  0.745056  0.008935  0.842598  1
  O  O31  1  0.504394  0.853374  0.771012  1
  O  O32  1  0.323629  0.652521  0.765306  1
  O  O33  1  0.887214  0.558323  0.234694  1
  O  O34  1  0.082362  0.733382  0.228988  1
  O  O35  1  0.266618  0.495606  0.348980  1
  O  O36  1  0.691918  0.470622  0.769185  1
  O  O37  1  0.544376  0.262791  0.690011  1
  O  O38  1  0.097542  0.254944  0.263879  1
