# generated using pymatgen
data_UTe3
_symmetry_space_group_name_H-M   'P 1'
_cell_length_a   6.03251230
_cell_length_b   4.22747781
_cell_length_c   10.57601385
_cell_angle_alpha   90.00000000
_cell_angle_beta   97.11547922
_cell_angle_gamma   90.00000000
_symmetry_Int_Tables_number   1
_chemical_formula_structural   UTe3
_chemical_formula_sum   'U2 Te6'
_cell_volume   267.63561274
_cell_formula_units_Z   2
loop_
 _symmetry_equiv_pos_site_id
 _symmetry_equiv_pos_as_xyz
  1  'x, y, z'
loop_
 _atom_site_type_symbol
 _atom_site_label
 _atom_site_symmetry_multiplicity
 _atom_site_fract_x
 _atom_site_fract_y
 _atom_site_fract_z
 _atom_site_occupancy
  U  U0  1  0.719044  0.250000  0.345676  1
  U  U1  1  0.280956  0.750000  0.654324  1
  Te  Te2  1  0.558112  0.250000  0.824230  1
  Te  Te3  1  0.441888  0.750000  0.175770  1
  Te  Te4  1  0.092832  0.250000  0.836704  1
  Te  Te5  1  0.907168  0.750000  0.163296  1
  Te  Te6  1  0.236717  0.250000  0.437083  1
  Te  Te7  1  0.763283  0.750000  0.562917  1
