# generated using pymatgen
data_Fe10O9F11
_symmetry_space_group_name_H-M   'P 1'
_cell_length_a   4.76279443
_cell_length_b   4.77013093
_cell_length_c   15.51832111
_cell_angle_alpha   89.97635455
_cell_angle_beta   89.95867645
_cell_angle_gamma   88.72048151
_symmetry_Int_Tables_number   1
_chemical_formula_structural   Fe10O9F11
_chemical_formula_sum   'Fe10 O9 F11'
_cell_volume   352.47508300
_cell_formula_units_Z   1
loop_
 _symmetry_equiv_pos_site_id
 _symmetry_equiv_pos_as_xyz
  1  'x, y, z'
loop_
 _atom_site_type_symbol
 _atom_site_label
 _atom_site_symmetry_multiplicity
 _atom_site_fract_x
 _atom_site_fract_y
 _atom_site_fract_z
 _atom_site_occupancy
  Fe  Fe0  1  0.986713  0.011500  0.999106  1
  Fe  Fe1  1  0.040889  0.977422  0.793636  1
  Fe  Fe2  1  0.988153  0.056585  0.599172  1
  Fe  Fe3  1  0.049969  0.996880  0.402733  1
  Fe  Fe4  1  0.032810  0.986612  0.205993  1
  Fe  Fe5  1  0.489478  0.516965  0.906539  1
  Fe  Fe6  1  0.482240  0.482547  0.500424  1
  Fe  Fe7  1  0.479599  0.475538  0.702094  1
  Fe  Fe8  1  0.456464  0.495492  0.298638  1
  Fe  Fe9  1  0.490304  0.517251  0.092281  1
  O  O10  1  0.189013  0.191945  0.699282  1
  O  O11  1  0.191406  0.199283  0.500881  1
  O  O12  1  0.197937  0.183004  0.301484  1
  O  O13  1  0.297485  0.707570  0.999332  1
  O  O14  1  0.316383  0.681982  0.799079  1
  O  O15  1  0.315792  0.683714  0.402030  1
  O  O16  1  0.309205  0.686963  0.198982  1
  O  O17  1  0.684902  0.320281  0.999373  1
  O  O18  1  0.677730  0.323201  0.600369  1
  F  F19  1  0.200201  0.195837  0.891972  1
  F  F20  1  0.194485  0.200451  0.107075  1
  F  F21  1  0.290289  0.707851  0.600336  1
  F  F22  1  0.708237  0.288193  0.799461  1
  F  F23  1  0.702207  0.292922  0.399424  1
  F  F24  1  0.703749  0.294589  0.201351  1
  F  F25  1  0.806964  0.805234  0.889835  1
  F  F26  1  0.804486  0.810604  0.500831  1
  F  F27  1  0.800384  0.803799  0.696871  1
  F  F28  1  0.802964  0.811408  0.108944  1
  F  F29  1  0.809562  0.794375  0.302476  1
