# generated using pymatgen
data_LiMn2(BO3)2
_symmetry_space_group_name_H-M   'P 1'
_cell_length_a   5.30232261
_cell_length_b   5.81772718
_cell_length_c   16.44325631
_cell_angle_alpha   99.66100665
_cell_angle_beta   90.25038129
_cell_angle_gamma   90.71922053
_symmetry_Int_Tables_number   1
_chemical_formula_structural   LiMn2(BO3)2
_chemical_formula_sum   'Li4 Mn8 B8 O24'
_cell_volume   499.98898692
_cell_formula_units_Z   4
loop_
 _symmetry_equiv_pos_site_id
 _symmetry_equiv_pos_as_xyz
  1  'x, y, z'
loop_
 _atom_site_type_symbol
 _atom_site_label
 _atom_site_symmetry_multiplicity
 _atom_site_fract_x
 _atom_site_fract_y
 _atom_site_fract_z
 _atom_site_occupancy
  Li  Li0  1  0.162401  0.060064  0.615000  1
  Li  Li1  1  0.329383  0.192400  0.134715  1
  Li  Li2  1  0.670617  0.807600  0.865285  1
  Li  Li3  1  0.837599  0.939936  0.385000  1
  Mn  Mn4  1  0.300536  0.299737  0.958266  1
  Mn  Mn5  1  0.806985  0.035688  0.213002  1
  Mn  Mn6  1  0.684481  0.217438  0.535238  1
  Mn  Mn7  1  0.807808  0.544831  0.707645  1
  Mn  Mn8  1  0.192192  0.455169  0.292355  1
  Mn  Mn9  1  0.315519  0.782562  0.464762  1
  Mn  Mn10  1  0.193015  0.964312  0.786998  1
  Mn  Mn11  1  0.699464  0.700263  0.041734  1
  B  B12  1  0.674641  0.047032  0.704603  1
  B  B13  1  0.174722  0.286736  0.458139  1
  B  B14  1  0.322868  0.469820  0.796238  1
  B  B15  1  0.823334  0.206116  0.049673  1
  B  B16  1  0.176666  0.793884  0.950327  1
  B  B17  1  0.677132  0.530180  0.203762  1
  B  B18  1  0.825278  0.713264  0.541861  1
  B  B19  1  0.325359  0.952968  0.295397  1
  O  O20  1  0.417010  0.032641  0.696236  1
  O  O21  1  0.815568  0.174611  0.654475  1
  O  O22  1  0.305368  0.152825  0.508426  1
  O  O23  1  0.673415  0.347393  0.009564  1
  O  O24  1  0.196336  0.073736  0.242053  1
  O  O25  1  0.195591  0.298798  0.833103  1
  O  O26  1  0.685918  0.054643  0.093694  1
  O  O27  1  0.922251  0.253581  0.444849  1
  O  O28  1  0.574221  0.501359  0.802892  1
  O  O29  1  0.078725  0.217950  0.052129  1
  O  O30  1  0.306459  0.440794  0.416870  1
  O  O31  1  0.831019  0.381590  0.240857  1
  O  O32  1  0.168981  0.618410  0.759143  1
  O  O33  1  0.693541  0.559206  0.583130  1
  O  O34  1  0.921275  0.782050  0.947871  1
  O  O35  1  0.425779  0.498641  0.197108  1
  O  O36  1  0.077749  0.746419  0.555151  1
  O  O37  1  0.314082  0.945357  0.906306  1
  O  O38  1  0.804409  0.701202  0.166897  1
  O  O39  1  0.803664  0.926264  0.757947  1
  O  O40  1  0.326585  0.652607  0.990436  1
  O  O41  1  0.694632  0.847175  0.491574  1
  O  O42  1  0.184432  0.825389  0.345525  1
  O  O43  1  0.582990  0.967359  0.303764  1
