# generated using pymatgen
data_Mn6O5F7
_symmetry_space_group_name_H-M   'P 1'
_cell_length_a   4.73081131
_cell_length_b   5.72699243
_cell_length_c   7.87890327
_cell_angle_alpha   86.53429386
_cell_angle_beta   88.82133037
_cell_angle_gamma   88.81586545
_symmetry_Int_Tables_number   1
_chemical_formula_structural   Mn6O5F7
_chemical_formula_sum   'Mn6 O5 F7'
_cell_volume   212.98982501
_cell_formula_units_Z   1
loop_
 _symmetry_equiv_pos_site_id
 _symmetry_equiv_pos_as_xyz
  1  'x, y, z'
loop_
 _atom_site_type_symbol
 _atom_site_label
 _atom_site_symmetry_multiplicity
 _atom_site_fract_x
 _atom_site_fract_y
 _atom_site_fract_z
 _atom_site_occupancy
  Mn  Mn0  1  0.513042  0.510306  0.011224  1
  Mn  Mn1  1  0.550757  0.827003  0.659261  1
  Mn  Mn2  1  0.488119  0.168596  0.334007  1
  Mn  Mn3  1  0.971945  0.332628  0.682651  1
  Mn  Mn4  1  0.986859  0.663463  0.321572  1
  Mn  Mn5  1  0.987924  0.986104  0.989436  1
  O  O6  1  0.809671  0.041612  0.774543  1
  O  O7  1  0.811031  0.706619  0.096248  1
  O  O8  1  0.692958  0.527519  0.780484  1
  O  O9  1  0.690912  0.878860  0.426564  1
  O  O10  1  0.311805  0.463623  0.234613  1
  F  F11  1  0.793462  0.362882  0.437237  1
  F  F12  1  0.707630  0.200107  0.108812  1
  F  F13  1  0.285823  0.139571  0.571523  1
  F  F14  1  0.313227  0.805110  0.879921  1
  F  F15  1  0.174377  0.624505  0.563617  1
  F  F16  1  0.200711  0.971481  0.212024  1
  F  F17  1  0.209749  0.290008  0.916262  1
