# generated using pymatgen
data_Mn12O7F17
_symmetry_space_group_name_H-M   'P 1'
_cell_length_a   4.80947585
_cell_length_b   5.77529636
_cell_length_c   15.96347606
_cell_angle_alpha   89.46061026
_cell_angle_beta   89.41575601
_cell_angle_gamma   84.77169062
_symmetry_Int_Tables_number   1
_chemical_formula_structural   Mn12O7F17
_chemical_formula_sum   'Mn12 O7 F17'
_cell_volume   441.52011115
_cell_formula_units_Z   1
loop_
 _symmetry_equiv_pos_site_id
 _symmetry_equiv_pos_as_xyz
  1  'x, y, z'
loop_
 _atom_site_type_symbol
 _atom_site_label
 _atom_site_symmetry_multiplicity
 _atom_site_fract_x
 _atom_site_fract_y
 _atom_site_fract_z
 _atom_site_occupancy
  Mn  Mn0  1  0.996060  0.849988  0.412640  1
  Mn  Mn1  1  0.966166  0.170752  0.244848  1
  Mn  Mn2  1  0.999721  0.846012  0.085794  1
  Mn  Mn3  1  0.993314  0.843659  0.748180  1
  Mn  Mn4  1  0.990307  0.173774  0.571015  1
  Mn  Mn5  1  0.981547  0.168001  0.906698  1
  Mn  Mn6  1  0.488002  0.670589  0.591703  1
  Mn  Mn7  1  0.486398  0.672230  0.927522  1
  Mn  Mn8  1  0.487493  0.646026  0.261147  1
  Mn  Mn9  1  0.491411  0.341323  0.085730  1
  Mn  Mn10  1  0.512215  0.348456  0.412276  1
  Mn  Mn11  1  0.492210  0.342352  0.750981  1
  O  O12  1  0.773983  0.115863  0.134573  1
  O  O13  1  0.772877  0.110396  0.461611  1
  O  O14  1  0.766103  0.108695  0.796974  1
  O  O15  1  0.708560  0.390853  0.308350  1
  O  O16  1  0.270788  0.609199  0.038004  1
  O  O17  1  0.269485  0.613027  0.363875  1
  O  O18  1  0.268441  0.610173  0.702113  1
  F  F19  1  0.770492  0.882480  0.306085  1
  F  F20  1  0.788998  0.884856  0.638509  1
  F  F21  1  0.787235  0.884110  0.974925  1
  F  F22  1  0.726534  0.618986  0.152967  1
  F  F23  1  0.754084  0.615478  0.481788  1
  F  F24  1  0.730209  0.384746  0.646908  1
  F  F25  1  0.742514  0.607343  0.814850  1
  F  F26  1  0.730641  0.384208  0.983163  1
  F  F27  1  0.268650  0.378115  0.191062  1
  F  F28  1  0.301867  0.380182  0.521889  1
  F  F29  1  0.289274  0.382480  0.862259  1
  F  F30  1  0.231213  0.876467  0.196954  1
  F  F31  1  0.231071  0.884107  0.517250  1
  F  F32  1  0.220518  0.108488  0.350261  1
  F  F33  1  0.241657  0.102414  0.020725  1
  F  F34  1  0.227776  0.884215  0.851788  1
  F  F35  1  0.242183  0.109957  0.684584  1
