# generated using pymatgen
data_Li2MnVP2(HO5)2
_symmetry_space_group_name_H-M   'P 1'
_cell_length_a   5.39757842
_cell_length_b   7.46963097
_cell_length_c   10.28388704
_cell_angle_alpha   104.80297053
_cell_angle_beta   100.09124388
_cell_angle_gamma   106.06801650
_symmetry_Int_Tables_number   1
_chemical_formula_structural   Li2MnVP2(HO5)2
_chemical_formula_sum   'Li4 Mn2 V2 P4 H4 O20'
_cell_volume   371.46177442
_cell_formula_units_Z   2
loop_
 _symmetry_equiv_pos_site_id
 _symmetry_equiv_pos_as_xyz
  1  'x, y, z'
loop_
 _atom_site_type_symbol
 _atom_site_label
 _atom_site_symmetry_multiplicity
 _atom_site_fract_x
 _atom_site_fract_y
 _atom_site_fract_z
 _atom_site_occupancy
  Li  Li0  1  0.475934  0.051790  0.873902  1
  Li  Li1  1  0.974701  0.540736  0.372487  1
  Li  Li2  1  0.025299  0.459264  0.627513  1
  Li  Li3  1  0.524066  0.948210  0.126098  1
  Mn  Mn4  1  0.000000  0.500000  0.000000  1
  Mn  Mn5  1  0.500000  0.500000  0.500000  1
  V  V6  1  0.500000  0.000000  0.500000  1
  V  V7  1  0.000000  0.000000  0.000000  1
  P  P8  1  0.473514  0.605332  0.841050  1
  P  P9  1  0.024882  0.886411  0.657497  1
  P  P10  1  0.975118  0.113589  0.342503  1
  P  P11  1  0.526486  0.394668  0.158950  1
  H  H12  1  0.612802  0.327511  0.678337  1
  H  H13  1  0.117587  0.845383  0.179086  1
  H  H14  1  0.882413  0.154617  0.820914  1
  H  H15  1  0.387198  0.672489  0.321663  1
  O  O16  1  0.867577  0.187414  0.917012  1
  O  O17  1  0.367848  0.712995  0.417765  1
  O  O18  1  0.647716  0.477101  0.860370  1
  O  O19  1  0.309147  0.998008  0.646698  1
  O  O20  1  0.171417  0.000443  0.371762  1
  O  O21  1  0.815363  0.488836  0.145655  1
  O  O22  1  0.422890  0.613561  0.691437  1
  O  O23  1  0.607401  0.820446  0.947269  1
  O  O24  1  0.925586  0.109276  0.189257  1
  O  O25  1  0.082316  0.325761  0.443032  1
  O  O26  1  0.917684  0.674239  0.556968  1
  O  O27  1  0.074414  0.890724  0.810743  1
  O  O28  1  0.392599  0.179554  0.052731  1
  O  O29  1  0.577110  0.386439  0.308563  1
  O  O30  1  0.184637  0.511164  0.854345  1
  O  O31  1  0.828583  0.999557  0.628238  1
  O  O32  1  0.690853  0.001992  0.353302  1
  O  O33  1  0.352284  0.522899  0.139630  1
  O  O34  1  0.632152  0.287005  0.582235  1
  O  O35  1  0.132423  0.812586  0.082988  1
