# generated using pymatgen
data_LiMn3(BO3)3
_symmetry_space_group_name_H-M   'P 1'
_cell_length_a   5.32151616
_cell_length_b   5.94814281
_cell_length_c   12.00627183
_cell_angle_alpha   83.93966202
_cell_angle_beta   79.76840309
_cell_angle_gamma   86.83194873
_symmetry_Int_Tables_number   1
_chemical_formula_structural   LiMn3(BO3)3
_chemical_formula_sum   'Li2 Mn6 B6 O18'
_cell_volume   371.64368011
_cell_formula_units_Z   2
loop_
 _symmetry_equiv_pos_site_id
 _symmetry_equiv_pos_as_xyz
  1  'x, y, z'
loop_
 _atom_site_type_symbol
 _atom_site_label
 _atom_site_symmetry_multiplicity
 _atom_site_fract_x
 _atom_site_fract_y
 _atom_site_fract_z
 _atom_site_occupancy
  Li  Li0  1  0.039475  0.411507  0.093977  1
  Li  Li1  1  0.702513  0.089737  0.760641  1
  Mn  Mn2  1  0.616732  0.246912  0.988709  1
  Mn  Mn3  1  0.950894  0.596312  0.328826  1
  Mn  Mn4  1  0.282045  0.904722  0.651105  1
  Mn  Mn5  1  0.713865  0.099046  0.348683  1
  Mn  Mn6  1  0.068240  0.420772  0.670604  1
  Mn  Mn7  1  0.395370  0.759366  0.007983  1
  B  B8  1  0.844922  0.857623  0.117124  1
  B  B9  1  0.476088  0.460273  0.221020  1
  B  B10  1  0.815579  0.827802  0.557057  1
  B  B11  1  0.187858  0.189939  0.442882  1
  B  B12  1  0.518156  0.522797  0.779568  1
  B  B13  1  0.153765  0.140691  0.884397  1
  O  O14  1  0.620284  0.963056  0.086203  1
  O  O15  1  0.005786  0.732146  0.046355  1
  O  O16  1  0.415660  0.433636  0.115747  1
  O  O17  1  0.879545  0.871559  0.229502  1
  O  O18  1  0.318229  0.574549  0.299766  1
  O  O19  1  0.725363  0.385122  0.242312  1
  O  O20  1  0.051463  0.741564  0.577223  1
  O  O21  1  0.760447  0.818303  0.447836  1
  O  O22  1  0.649081  0.925594  0.640299  1
  O  O23  1  0.354130  0.098054  0.358721  1
  O  O24  1  0.228196  0.185504  0.554074  1
  O  O25  1  0.953195  0.288348  0.417743  1
  O  O26  1  0.290599  0.628721  0.751602  1
  O  O27  1  0.678240  0.407327  0.704264  1
  O  O28  1  0.077717  0.107414  0.783048  1
  O  O29  1  0.554739  0.526755  0.892507  1
  O  O30  1  0.996334  0.242739  0.970199  1
  O  O31  1  0.406364  0.073428  0.898371  1
