# generated using pymatgen
data_H7SIO10
_symmetry_space_group_name_H-M   'P 1'
_cell_length_a   14.05958897
_cell_length_b   14.05958897
_cell_length_c   14.05958897
_cell_angle_alpha   96.16732724
_cell_angle_beta   96.16732724
_cell_angle_gamma   141.73317947
_symmetry_Int_Tables_number   1
_chemical_formula_structural   H7SIO10
_chemical_formula_sum   'H56 S8 I8 O80'
_cell_volume   1626.13525724
_cell_formula_units_Z   8
loop_
 _symmetry_equiv_pos_site_id
 _symmetry_equiv_pos_as_xyz
  1  'x, y, z'
loop_
 _atom_site_type_symbol
 _atom_site_label
 _atom_site_symmetry_multiplicity
 _atom_site_fract_x
 _atom_site_fract_y
 _atom_site_fract_z
 _atom_site_occupancy
  H  H0  1  0.484562  0.722820  0.649005  1
  H  H1  1  0.920101  0.146533  0.624778  1
  H  H2  1  0.920972  0.979325  0.624720  1
  H  H3  1  0.447673  0.497991  0.632176  1
  H  H4  1  0.396533  0.271756  0.726432  1
  H  H5  1  0.065496  0.197673  0.449682  1
  H  H6  1  0.972820  0.823815  0.738257  1
  H  H7  1  0.546251  0.670972  0.441647  1
  H  H8  1  0.229325  0.104604  0.558353  1
  H  H9  1  0.085557  0.234562  0.261743  1
  H  H10  1  0.747991  0.615814  0.550318  1
  H  H11  1  0.545324  0.670101  0.273568  1
  H  H12  1  0.865814  0.815496  0.367824  1
  H  H13  1  0.354604  0.296251  0.375280  1
  H  H14  1  0.605278  0.802357  0.124060  1
  H  H15  1  0.571703  0.268782  0.624060  1
  H  H16  1  0.918805  0.102725  0.036137  1
  H  H17  1  0.183413  0.867332  0.536137  1
  H  H18  1  0.949823  0.574121  0.574313  1
  H  H19  1  0.250192  0.374490  0.074313  1
  H  H20  1  0.521756  0.295324  0.375222  1
  H  H21  1  0.117332  0.081195  0.183920  1
  H  H22  1  0.352725  0.816587  0.683920  1
  H  H23  1  0.073815  0.835557  0.350995  1
  H  H24  1  0.518782  0.394722  0.197079  1
  H  H25  1  0.052357  0.428297  0.697079  1
  H  H26  1  0.624490  0.050177  0.624298  1
  H  H27  1  0.824121  0.749808  0.124298  1
  H  H28  1  0.425879  0.000192  0.375702  1
  H  H29  1  0.625510  0.699823  0.875702  1
  H  H30  1  0.731218  0.355278  0.302921  1
  H  H31  1  0.197643  0.321703  0.802921  1
  H  H32  1  0.176185  0.914443  0.149005  1
  H  H33  1  0.897275  0.933413  0.816080  1
  H  H34  1  0.132668  0.668805  0.316080  1
  H  H35  1  0.728244  0.454676  0.124778  1
  H  H36  1  0.300177  0.175879  0.925687  1
  H  H37  1  0.999808  0.375510  0.425687  1
  H  H38  1  0.331195  0.647275  0.463863  1
  H  H39  1  0.066587  0.882668  0.963863  1
  H  H40  1  0.644722  0.947643  0.375940  1
  H  H41  1  0.678297  0.481218  0.875940  1
  H  H42  1  0.895396  0.453749  0.124720  1
  H  H43  1  0.384186  0.934504  0.132176  1
  H  H44  1  0.704676  0.079899  0.226432  1
  H  H45  1  0.502009  0.134186  0.949682  1
  H  H46  1  0.164443  0.515438  0.238257  1
  H  H47  1  0.020675  0.645396  0.941647  1
  H  H48  1  0.703749  0.079028  0.058353  1
  H  H49  1  0.277180  0.926185  0.761743  1
  H  H50  1  0.184504  0.552327  0.050318  1
  H  H51  1  0.853467  0.478244  0.773568  1
  H  H52  1  0.802327  0.252009  0.867824  1
  H  H53  1  0.329028  0.770675  0.875280  1
  H  H54  1  0.329899  0.603467  0.875222  1
  H  H55  1  0.765438  0.027180  0.850995  1
  S  S56  1  0.181596  0.401146  0.569688  1
  S  S57  1  0.651146  0.581457  0.719550  1
  S  S58  1  0.861907  0.931596  0.280450  1
  S  S59  1  0.831457  0.611907  0.430312  1
  S  S60  1  0.418543  0.138093  0.069688  1
  S  S61  1  0.388093  0.818404  0.219550  1
  S  S62  1  0.598854  0.168543  0.780450  1
  S  S63  1  0.068404  0.348854  0.930312  1
  I  I64  1  0.108922  0.646701  0.735008  1
  I  I65  1  0.338306  0.376085  0.235008  1
  I  I66  1  0.623915  0.858922  0.962221  1
  I  I67  1  0.353299  0.088306  0.462221  1
  I  I68  1  0.896701  0.661694  0.037779  1
  I  I69  1  0.626085  0.891078  0.537779  1
  I  I70  1  0.141078  0.103299  0.764992  1
  I  I71  1  0.911694  0.373915  0.264992  1
  O  O72  1  0.346637  0.524679  0.639598  1
  O  O73  1  0.838912  0.029829  0.621431  1
  O  O74  1  0.589785  0.726418  0.515879  1
  O  O75  1  0.136339  0.258931  0.521809  1
  O  O76  1  0.976418  0.960539  0.636633  1
  O  O77  1  0.508931  0.487122  0.622592  1
  O  O78  1  0.279829  0.158398  0.690917  1
  O  O79  1  0.774679  0.635081  0.678041  1
  O  O80  1  0.957040  0.096637  0.321959  1
  O  O81  1  0.467482  0.588912  0.309083  1
  O  O82  1  0.864530  0.886339  0.377408  1
  O  O83  1  0.323906  0.339785  0.363367  1
  O  O84  1  0.167740  0.817416  0.714535  1
  O  O85  1  0.147119  0.296795  0.214535  1
  O  O86  1  0.737122  0.614530  0.478191  1
  O  O87  1  0.210539  0.073906  0.484121  1
  O  O88  1  0.662925  0.285501  0.726683  1
  O  O89  1  0.691182  0.813758  0.226683  1
  O  O90  1  0.537535  0.787513  0.070157  1
  O  O91  1  0.532644  0.282622  0.570157  1
  O  O92  1  0.966318  0.685506  0.511467  1
  O  O93  1  0.075961  0.295149  0.011467  1
  O  O94  1  0.303200  0.971315  0.553928  1
  O  O95  1  0.832614  0.000729  0.053928  1
  O  O96  1  0.935506  0.924039  0.219188  1
  O  O97  1  0.545149  0.033682  0.719188  1
  O  O98  1  0.408398  0.217482  0.378569  1
  O  O99  1  0.885081  0.707040  0.360402  1
  O  O100  1  0.352597  0.424516  0.111924  1
  O  O101  1  0.937408  0.509326  0.611924  1
  O  O102  1  0.037513  0.467356  0.749978  1
  O  O103  1  0.532622  0.462465  0.249978  1
  O  O104  1  0.250729  0.696800  0.668115  1
  O  O105  1  0.221315  0.167386  0.168115  1
  O  O106  1  0.714499  0.441182  0.377424  1
  O  O107  1  0.186242  0.412925  0.877424  1
  O  O108  1  0.182584  0.897119  0.350324  1
  O  O109  1  0.703205  0.917740  0.850324  1
  O  O110  1  0.575484  0.687408  0.928081  1
  O  O111  1  0.490674  0.102597  0.428081  1
  O  O112  1  0.759326  0.647403  0.071919  1
  O  O113  1  0.674516  0.062592  0.571919  1
  O  O114  1  0.067416  0.852881  0.149676  1
  O  O115  1  0.546795  0.832260  0.649676  1
  O  O116  1  0.535501  0.308818  0.122576  1
  O  O117  1  0.063758  0.337075  0.622576  1
  O  O118  1  0.999271  0.053200  0.831885  1
  O  O119  1  0.028685  0.582614  0.331885  1
  O  O120  1  0.212487  0.282644  0.750022  1
  O  O121  1  0.717378  0.287535  0.250022  1
  O  O122  1  0.312592  0.240674  0.888076  1
  O  O123  1  0.897403  0.325484  0.388076  1
  O  O124  1  0.364919  0.042960  0.139598  1
  O  O125  1  0.841602  0.532518  0.121431  1
  O  O126  1  0.704851  0.716318  0.780812  1
  O  O127  1  0.314494  0.825961  0.280812  1
  O  O128  1  0.946800  0.778685  0.946072  1
  O  O129  1  0.417386  0.749271  0.446072  1
  O  O130  1  0.283682  0.064494  0.988533  1
  O  O131  1  0.174039  0.454851  0.488533  1
  O  O132  1  0.712465  0.962487  0.429843  1
  O  O133  1  0.717356  0.467378  0.929843  1
  O  O134  1  0.587075  0.464499  0.773317  1
  O  O135  1  0.558818  0.936242  0.273317  1
  O  O136  1  0.039461  0.676094  0.015879  1
  O  O137  1  0.512878  0.135470  0.021809  1
  O  O138  1  0.082260  0.932584  0.785465  1
  O  O139  1  0.102881  0.453205  0.285465  1
  O  O140  1  0.926094  0.410215  0.136633  1
  O  O141  1  0.385470  0.863661  0.122592  1
  O  O142  1  0.782518  0.161088  0.190917  1
  O  O143  1  0.292960  0.653363  0.178041  1
  O  O144  1  0.475321  0.114919  0.821959  1
  O  O145  1  0.970171  0.591602  0.809083  1
  O  O146  1  0.741069  0.262878  0.877408  1
  O  O147  1  0.273582  0.789461  0.863367  1
  O  O148  1  0.113661  0.491069  0.978191  1
  O  O149  1  0.660215  0.023582  0.984121  1
  O  O150  1  0.411088  0.720171  0.878569  1
  O  O151  1  0.903363  0.225321  0.860402  1
