# generated using pymatgen
data_Ba3In(BO3)3
_symmetry_space_group_name_H-M   'P 1'
_cell_length_a   8.12329362
_cell_length_b   8.12329362
_cell_length_c   8.12329362
_cell_angle_alpha   105.81140371
_cell_angle_beta   105.81140371
_cell_angle_gamma   105.81140371
_symmetry_Int_Tables_number   1
_chemical_formula_structural   Ba3In(BO3)3
_chemical_formula_sum   'Ba6 In2 B6 O18'
_cell_volume   460.12651636
_cell_formula_units_Z   2
loop_
 _symmetry_equiv_pos_site_id
 _symmetry_equiv_pos_as_xyz
  1  'x, y, z'
loop_
 _atom_site_type_symbol
 _atom_site_label
 _atom_site_symmetry_multiplicity
 _atom_site_fract_x
 _atom_site_fract_y
 _atom_site_fract_z
 _atom_site_occupancy
  Ba  Ba0  1  0.237297  0.335031  0.843897  1
  Ba  Ba1  1  0.335031  0.843897  0.237297  1
  Ba  Ba2  1  0.843897  0.237297  0.335031  1
  Ba  Ba3  1  0.762703  0.664969  0.156103  1
  Ba  Ba4  1  0.664969  0.156103  0.762703  1
  Ba  Ba5  1  0.156103  0.762703  0.664969  1
  In  In6  1  0.000000  0.000000  0.000000  1
  In  In7  1  0.500000  0.500000  0.500000  1
  B  B8  1  0.549560  0.791999  0.865041  1
  B  B9  1  0.791999  0.865041  0.549560  1
  B  B10  1  0.865041  0.549560  0.791999  1
  B  B11  1  0.450440  0.208001  0.134959  1
  B  B12  1  0.208001  0.134959  0.450440  1
  B  B13  1  0.134959  0.450440  0.208001  1
  O  O14  1  0.498281  0.763499  0.676975  1
  O  O15  1  0.763499  0.676975  0.498281  1
  O  O16  1  0.676975  0.498281  0.763499  1
  O  O17  1  0.501719  0.236501  0.323025  1
  O  O18  1  0.236501  0.323025  0.501719  1
  O  O19  1  0.323025  0.501719  0.236501  1
  O  O20  1  0.428349  0.699272  0.930026  1
  O  O21  1  0.699272  0.930026  0.428349  1
  O  O22  1  0.930026  0.428349  0.699272  1
  O  O23  1  0.571651  0.300728  0.069974  1
  O  O24  1  0.300728  0.069974  0.571651  1
  O  O25  1  0.069974  0.571651  0.300728  1
  O  O26  1  0.717802  0.931505  0.992274  1
  O  O27  1  0.931505  0.992274  0.717802  1
  O  O28  1  0.992274  0.717802  0.931505  1
  O  O29  1  0.282198  0.068495  0.007726  1
  O  O30  1  0.068495  0.007726  0.282198  1
  O  O31  1  0.007726  0.282198  0.068495  1
