# generated using pymatgen
data_LiMn4(PO4)3
_symmetry_space_group_name_H-M   'P 1'
_cell_length_a   9.65837284
_cell_length_b   9.65837284
_cell_length_c   6.20939908
_cell_angle_alpha   90.00000000
_cell_angle_beta   90.00000000
_cell_angle_gamma   120.00000000
_symmetry_Int_Tables_number   1
_chemical_formula_structural   LiMn4(PO4)3
_chemical_formula_sum   'Li2 Mn8 P6 O24'
_cell_volume   501.63535456
_cell_formula_units_Z   2
loop_
 _symmetry_equiv_pos_site_id
 _symmetry_equiv_pos_as_xyz
  1  'x, y, z'
loop_
 _atom_site_type_symbol
 _atom_site_label
 _atom_site_symmetry_multiplicity
 _atom_site_fract_x
 _atom_site_fract_y
 _atom_site_fract_z
 _atom_site_occupancy
  Li  Li0  1  0.333333  0.666667  0.028041  1
  Li  Li1  1  0.666667  0.333333  0.528041  1
  Mn  Mn2  1  0.963919  0.696491  0.249222  1
  Mn  Mn3  1  0.333333  0.666667  0.492463  1
  Mn  Mn4  1  0.303509  0.267428  0.249222  1
  Mn  Mn5  1  0.732572  0.036081  0.249222  1
  Mn  Mn6  1  0.267428  0.963919  0.749222  1
  Mn  Mn7  1  0.696491  0.732572  0.749222  1
  Mn  Mn8  1  0.666667  0.333333  0.992463  1
  Mn  Mn9  1  0.036081  0.303509  0.749222  1
  P  P10  1  0.018965  0.630395  0.749851  1
  P  P11  1  0.611430  0.981035  0.749851  1
  P  P12  1  0.369605  0.388570  0.749851  1
  P  P13  1  0.630395  0.611430  0.249851  1
  P  P14  1  0.388570  0.018965  0.249851  1
  P  P15  1  0.981035  0.369605  0.249851  1
  O  O16  1  0.066741  0.748820  0.554903  1
  O  O17  1  0.070911  0.747379  0.945732  1
  O  O18  1  0.131058  0.555606  0.740448  1
  O  O19  1  0.343832  0.843042  0.253034  1
  O  O20  1  0.156958  0.500790  0.253034  1
  O  O21  1  0.424549  0.868942  0.740448  1
  O  O22  1  0.252621  0.323532  0.945732  1
  O  O23  1  0.251180  0.317921  0.554903  1
  O  O24  1  0.499210  0.656168  0.253034  1
  O  O25  1  0.444394  0.575451  0.740448  1
  O  O26  1  0.676468  0.929089  0.945732  1
  O  O27  1  0.682079  0.933259  0.554903  1
  O  O28  1  0.323532  0.070911  0.445732  1
  O  O29  1  0.317921  0.066741  0.054903  1
  O  O30  1  0.555606  0.424549  0.240448  1
  O  O31  1  0.500790  0.343832  0.753034  1
  O  O32  1  0.748820  0.682079  0.054903  1
  O  O33  1  0.747379  0.676468  0.445732  1
  O  O34  1  0.575451  0.131058  0.240448  1
  O  O35  1  0.843042  0.499210  0.753034  1
  O  O36  1  0.656168  0.156958  0.753034  1
  O  O37  1  0.868942  0.444394  0.240448  1
  O  O38  1  0.933259  0.251180  0.054903  1
  O  O39  1  0.929089  0.252621  0.445732  1
