# generated using pymatgen
data_Li4Co3Ni3(SnO8)2
_symmetry_space_group_name_H-M   'P 1'
_cell_length_a   5.88850974
_cell_length_b   5.88850974
_cell_length_c   9.56641302
_cell_angle_alpha   87.85166127
_cell_angle_beta   92.14833873
_cell_angle_gamma   121.36316251
_symmetry_Int_Tables_number   1
_chemical_formula_structural   Li4Co3Ni3(SnO8)2
_chemical_formula_sum   'Li4 Co3 Ni3 Sn2 O16'
_cell_volume   282.98137288
_cell_formula_units_Z   1
loop_
 _symmetry_equiv_pos_site_id
 _symmetry_equiv_pos_as_xyz
  1  'x, y, z'
loop_
 _atom_site_type_symbol
 _atom_site_label
 _atom_site_symmetry_multiplicity
 _atom_site_fract_x
 _atom_site_fract_y
 _atom_site_fract_z
 _atom_site_occupancy
  Li  Li0  1  0.659580  0.340420  0.893811  1
  Li  Li1  1  0.003178  0.996822  0.993934  1
  Li  Li2  1  0.002210  0.997790  0.494591  1
  Li  Li3  1  0.332069  0.667931  0.391796  1
  Co  Co4  1  0.340538  0.167201  0.215774  1
  Co  Co5  1  0.832799  0.659462  0.215774  1
  Co  Co6  1  0.168951  0.831049  0.715158  1
  Ni  Ni7  1  0.831680  0.168320  0.214188  1
  Ni  Ni8  1  0.167004  0.337501  0.714808  1
  Ni  Ni9  1  0.662499  0.832996  0.714808  1
  Sn  Sn10  1  0.669978  0.330022  0.492284  1
  Sn  Sn11  1  0.333227  0.666773  0.993119  1
  O  O12  1  0.322894  0.147131  0.601825  1
  O  O13  1  0.516236  0.483764  0.329931  1
  O  O14  1  0.649295  0.350705  0.113304  1
  O  O15  1  0.015642  0.984358  0.306330  1
  O  O16  1  0.006991  0.993009  0.804282  1
  O  O17  1  0.852869  0.677106  0.601825  1
  O  O18  1  0.502302  0.033577  0.335291  1
  O  O19  1  0.966423  0.497698  0.335291  1
  O  O20  1  0.159990  0.840010  0.106600  1
  O  O21  1  0.848422  0.151578  0.598589  1
  O  O22  1  0.025521  0.529670  0.838518  1
  O  O23  1  0.470330  0.974479  0.838518  1
  O  O24  1  0.325991  0.674009  0.616283  1
  O  O25  1  0.164730  0.310875  0.099480  1
  O  O26  1  0.478939  0.521061  0.832508  1
  O  O27  1  0.689125  0.835270  0.099480  1
