# generated using pymatgen
data_LiMnPO4
_symmetry_space_group_name_H-M   'P 1'
_cell_length_a   5.10092673
_cell_length_b   8.44050943
_cell_length_c   18.69593828
_cell_angle_alpha   90.00000000
_cell_angle_beta   90.00000000
_cell_angle_gamma   90.00000000
_symmetry_Int_Tables_number   1
_chemical_formula_structural   LiMnPO4
_chemical_formula_sum   'Li8 Mn8 P8 O32'
_cell_volume   804.94278211
_cell_formula_units_Z   8
loop_
 _symmetry_equiv_pos_site_id
 _symmetry_equiv_pos_as_xyz
  1  'x, y, z'
loop_
 _atom_site_type_symbol
 _atom_site_label
 _atom_site_symmetry_multiplicity
 _atom_site_fract_x
 _atom_site_fract_y
 _atom_site_fract_z
 _atom_site_occupancy
  Li  Li0  1  0.455689  0.148257  0.761855  1
  Li  Li1  1  0.600720  0.071845  0.549852  1
  Li  Li2  1  0.100720  0.428155  0.049852  1
  Li  Li3  1  0.955689  0.351743  0.261855  1
  Li  Li4  1  0.455689  0.648257  0.738145  1
  Li  Li5  1  0.600720  0.571845  0.950148  1
  Li  Li6  1  0.100720  0.928155  0.450148  1
  Li  Li7  1  0.955689  0.851743  0.238145  1
  Mn  Mn8  1  0.964230  0.012387  0.931995  1
  Mn  Mn9  1  0.463016  0.145503  0.339631  1
  Mn  Mn10  1  0.963016  0.354497  0.839631  1
  Mn  Mn11  1  0.464230  0.487613  0.431995  1
  Mn  Mn12  1  0.964230  0.512387  0.568005  1
  Mn  Mn13  1  0.463016  0.645503  0.160369  1
  Mn  Mn14  1  0.963016  0.854497  0.660369  1
  Mn  Mn15  1  0.464230  0.987613  0.068005  1
  P  P16  1  0.930977  0.201806  0.681468  1
  P  P17  1  0.438660  0.239776  0.930416  1
  P  P18  1  0.938660  0.260224  0.430416  1
  P  P19  1  0.430977  0.298194  0.181468  1
  P  P20  1  0.930977  0.701806  0.818532  1
  P  P21  1  0.438660  0.739776  0.569584  1
  P  P22  1  0.938660  0.760224  0.069584  1
  P  P23  1  0.430977  0.798194  0.318532  1
  O  O24  1  0.778812  0.065521  0.641662  1
  O  O25  1  0.334485  0.088200  0.970784  1
  O  O26  1  0.853775  0.107975  0.468750  1
  O  O27  1  0.376145  0.140014  0.143359  1
  O  O28  1  0.220782  0.155039  0.685215  1
  O  O29  1  0.744784  0.227237  0.926169  1
  O  O30  1  0.812171  0.215195  0.758658  1
  O  O31  1  0.816922  0.269516  0.354123  1
  O  O32  1  0.316922  0.230484  0.854123  1
  O  O33  1  0.312171  0.284805  0.258658  1
  O  O34  1  0.244784  0.272763  0.426169  1
  O  O35  1  0.720782  0.344961  0.185215  1
  O  O36  1  0.876145  0.359986  0.643359  1
  O  O37  1  0.353775  0.392025  0.968750  1
  O  O38  1  0.834485  0.411800  0.470784  1
  O  O39  1  0.278812  0.434479  0.141662  1
  O  O40  1  0.778812  0.565521  0.858338  1
  O  O41  1  0.334485  0.588200  0.529216  1
  O  O42  1  0.853775  0.607975  0.031250  1
  O  O43  1  0.376145  0.640014  0.356641  1
  O  O44  1  0.220782  0.655039  0.814785  1
  O  O45  1  0.744784  0.727237  0.573831  1
  O  O46  1  0.812171  0.715195  0.741342  1
  O  O47  1  0.816922  0.769516  0.145877  1
  O  O48  1  0.316922  0.730484  0.645877  1
  O  O49  1  0.312171  0.784805  0.241342  1
  O  O50  1  0.244784  0.772763  0.073831  1
  O  O51  1  0.720782  0.844961  0.314785  1
  O  O52  1  0.876145  0.859986  0.856641  1
  O  O53  1  0.353775  0.892025  0.531250  1
  O  O54  1  0.834485  0.911800  0.029216  1
  O  O55  1  0.278812  0.934479  0.358338  1
