# generated using pymatgen
data_TiO2
_symmetry_space_group_name_H-M   'P 1'
_cell_length_a   3.01680616
_cell_length_b   9.59644587
_cell_length_c   11.04782143
_cell_angle_alpha   90.00000000
_cell_angle_beta   90.00000000
_cell_angle_gamma   90.00000000
_symmetry_Int_Tables_number   1
_chemical_formula_structural   TiO2
_chemical_formula_sum   'Ti8 O16'
_cell_volume   319.84124663
_cell_formula_units_Z   8
loop_
 _symmetry_equiv_pos_site_id
 _symmetry_equiv_pos_as_xyz
  1  'x, y, z'
loop_
 _atom_site_type_symbol
 _atom_site_label
 _atom_site_symmetry_multiplicity
 _atom_site_fract_x
 _atom_site_fract_y
 _atom_site_fract_z
 _atom_site_occupancy
  Ti  Ti0  1  0.750000  0.517510  0.868332  1
  Ti  Ti1  1  0.250000  0.736130  0.655443  1
  Ti  Ti2  1  0.750000  0.763870  0.155443  1
  Ti  Ti3  1  0.250000  0.982490  0.368332  1
  Ti  Ti4  1  0.750000  0.017510  0.631668  1
  Ti  Ti5  1  0.250000  0.236130  0.844557  1
  Ti  Ti6  1  0.750000  0.263870  0.344557  1
  Ti  Ti7  1  0.250000  0.482490  0.131668  1
  O  O8  1  0.750000  0.595266  0.044352  1
  O  O9  1  0.250000  0.624973  0.811051  1
  O  O10  1  0.250000  0.633196  0.231210  1
  O  O11  1  0.750000  0.650882  0.594154  1
  O  O12  1  0.250000  0.849118  0.094154  1
  O  O13  1  0.750000  0.866804  0.731210  1
  O  O14  1  0.750000  0.875027  0.311051  1
  O  O15  1  0.250000  0.904734  0.544352  1
  O  O16  1  0.750000  0.095266  0.455648  1
  O  O17  1  0.250000  0.124973  0.688949  1
  O  O18  1  0.250000  0.133196  0.268790  1
  O  O19  1  0.750000  0.150882  0.905846  1
  O  O20  1  0.250000  0.349118  0.405846  1
  O  O21  1  0.750000  0.366804  0.768790  1
  O  O22  1  0.750000  0.375027  0.188949  1
  O  O23  1  0.250000  0.404734  0.955648  1
