# generated using pymatgen
data_Li2Mn3(BO3)3
_symmetry_space_group_name_H-M   'P 1'
_cell_length_a   10.42292186
_cell_length_b   10.42292186
_cell_length_c   8.28653087
_cell_angle_alpha   66.60891575
_cell_angle_beta   113.39108425
_cell_angle_gamma   105.08673434
_symmetry_Int_Tables_number   1
_chemical_formula_structural   Li2Mn3(BO3)3
_chemical_formula_sum   'Li8 Mn12 B12 O36'
_cell_volume   752.68564603
_cell_formula_units_Z   4
loop_
 _symmetry_equiv_pos_site_id
 _symmetry_equiv_pos_as_xyz
  1  'x, y, z'
loop_
 _atom_site_type_symbol
 _atom_site_label
 _atom_site_symmetry_multiplicity
 _atom_site_fract_x
 _atom_site_fract_y
 _atom_site_fract_z
 _atom_site_occupancy
  Li  Li0  1  0.981146  0.512465  0.703004  1
  Li  Li1  1  0.735947  0.264053  0.702638  1
  Li  Li2  1  0.526021  0.473979  0.027766  1
  Li  Li3  1  0.487535  0.018854  0.703004  1
  Li  Li4  1  0.024530  0.975470  0.016282  1
  Li  Li5  1  0.615138  0.888863  0.273215  1
  Li  Li6  1  0.111137  0.384862  0.273215  1
  Li  Li7  1  0.366416  0.633584  0.291219  1
  Mn  Mn8  1  0.813829  0.436306  0.994790  1
  Mn  Mn9  1  0.507752  0.744310  0.660808  1
  Mn  Mn10  1  0.255690  0.492248  0.660808  1
  Mn  Mn11  1  0.761194  0.994891  0.622610  1
  Mn  Mn12  1  0.929823  0.825084  0.357585  1
  Mn  Mn13  1  0.681761  0.571564  0.371630  1
  Mn  Mn14  1  0.428436  0.318239  0.371630  1
  Mn  Mn15  1  0.563694  0.186171  0.994790  1
  Mn  Mn16  1  0.314506  0.937076  0.985552  1
  Mn  Mn17  1  0.062924  0.685494  0.985552  1
  Mn  Mn18  1  0.005109  0.238806  0.622610  1
  Mn  Mn19  1  0.174916  0.070177  0.357585  1
  B  B20  1  0.999904  0.253928  0.984219  1
  B  B21  1  0.707283  0.292717  0.341797  1
  B  B22  1  0.746072  0.000096  0.984219  1
  B  B23  1  0.958225  0.534081  0.338219  1
  B  B24  1  0.465919  0.041775  0.338219  1
  B  B25  1  0.543358  0.456642  0.675757  1
  B  B26  1  0.208245  0.791755  0.333681  1
  B  B27  1  0.796997  0.718208  0.654522  1
  B  B28  1  0.040016  0.959984  0.662933  1
  B  B29  1  0.501494  0.750282  0.011532  1
  B  B30  1  0.249718  0.498506  0.011532  1
  B  B31  1  0.281792  0.203003  0.654522  1
  O  O32  1  0.942981  0.299279  0.788816  1
  O  O33  1  0.652336  0.347664  0.423193  1
  O  O34  1  0.906367  0.593801  0.417242  1
  O  O35  1  0.586365  0.643897  0.093830  1
  O  O36  1  0.356103  0.413635  0.093830  1
  O  O37  1  0.851031  0.914029  0.078618  1
  O  O38  1  0.462732  0.818051  0.821815  1
  O  O39  1  0.181949  0.537268  0.821815  1
  O  O40  1  0.700721  0.057019  0.788816  1
  O  O41  1  0.668861  0.331139  0.151513  1
  O  O42  1  0.930716  0.569301  0.151105  1
  O  O43  1  0.967478  0.315665  0.080518  1
  O  O44  1  0.975062  0.024938  0.735047  1
  O  O45  1  0.487375  0.512625  0.758242  1
  O  O46  1  0.406199  0.093633  0.417242  1
  O  O47  1  0.145438  0.854562  0.397181  1
  O  O48  1  0.751888  0.789168  0.730883  1
  O  O49  1  0.210832  0.248112  0.730883  1
  O  O50  1  0.804822  0.195178  0.460230  1
  O  O51  1  0.570882  0.950044  0.456375  1
  O  O52  1  0.049956  0.429118  0.456375  1
  O  O53  1  0.640764  0.359236  0.790138  1
  O  O54  1  0.304211  0.695789  0.454080  1
  O  O55  1  0.881712  0.612937  0.773405  1
  O  O56  1  0.085971  0.148969  0.078618  1
  O  O57  1  0.503234  0.496766  0.484044  1
  O  O58  1  0.430699  0.069284  0.151105  1
  O  O59  1  0.171060  0.828940  0.141780  1
  O  O60  1  0.755061  0.754154  0.461774  1
  O  O61  1  0.455996  0.788488  0.122126  1
  O  O62  1  0.211512  0.544004  0.122126  1
  O  O63  1  0.684335  0.032522  0.080518  1
  O  O64  1  0.132275  0.867725  0.792076  1
  O  O65  1  0.387063  0.118288  0.773405  1
  O  O66  1  0.003663  0.996337  0.475760  1
  O  O67  1  0.245846  0.244939  0.461774  1
