# generated using pymatgen
data_Li4Mn3Cr2Fe3O16
_symmetry_space_group_name_H-M   'P 1'
_cell_length_a   5.87978945
_cell_length_b   5.87978945
_cell_length_c   9.52224271
_cell_angle_alpha   89.47147754
_cell_angle_beta   90.52852246
_cell_angle_gamma   120.38092557
_symmetry_Int_Tables_number   1
_chemical_formula_structural   Li4Mn3Cr2Fe3O16
_chemical_formula_sum   'Li4 Mn3 Cr2 Fe3 O16'
_cell_volume   283.98083545
_cell_formula_units_Z   1
loop_
 _symmetry_equiv_pos_site_id
 _symmetry_equiv_pos_as_xyz
  1  'x, y, z'
loop_
 _atom_site_type_symbol
 _atom_site_label
 _atom_site_symmetry_multiplicity
 _atom_site_fract_x
 _atom_site_fract_y
 _atom_site_fract_z
 _atom_site_occupancy
  Li  Li0  1  0.668419  0.331581  0.104715  1
  Li  Li1  1  0.998235  0.001765  0.002972  1
  Li  Li2  1  0.998897  0.001103  0.504715  1
  Li  Li3  1  0.334622  0.665378  0.606464  1
  Mn  Mn4  1  0.829051  0.170949  0.785759  1
  Mn  Mn5  1  0.661910  0.832314  0.285657  1
  Mn  Mn6  1  0.167686  0.338090  0.285657  1
  Cr  Cr7  1  0.664358  0.335642  0.513987  1
  Cr  Cr8  1  0.330459  0.669541  0.014083  1
  Fe  Fe9  1  0.829890  0.664130  0.786238  1
  Fe  Fe10  1  0.335870  0.170110  0.786238  1
  Fe  Fe11  1  0.167303  0.832697  0.286831  1
  O  O12  1  0.830139  0.676734  0.400246  1
  O  O13  1  0.519738  0.480262  0.655591  1
  O  O14  1  0.671238  0.328762  0.895948  1
  O  O15  1  0.992974  0.007026  0.690767  1
  O  O16  1  0.993682  0.006318  0.189333  1
  O  O17  1  0.323266  0.169861  0.400246  1
  O  O18  1  0.963168  0.474305  0.659355  1
  O  O19  1  0.525695  0.036832  0.659355  1
  O  O20  1  0.163385  0.836615  0.902368  1
  O  O21  1  0.838650  0.161350  0.394943  1
  O  O22  1  0.491326  0.963347  0.160193  1
  O  O23  1  0.036653  0.508674  0.160193  1
  O  O24  1  0.338752  0.661248  0.392644  1
  O  O25  1  0.670918  0.842881  0.900318  1
  O  O26  1  0.481261  0.518739  0.166200  1
  O  O27  1  0.157119  0.329082  0.900318  1
