# generated using pymatgen
data_Yb3N2
_symmetry_space_group_name_H-M   'P 1'
_cell_length_a   6.47615145
_cell_length_b   6.47615145
_cell_length_c   6.47615145
_cell_angle_alpha   56.47397308
_cell_angle_beta   56.47397308
_cell_angle_gamma   56.47397308
_symmetry_Int_Tables_number   1
_chemical_formula_structural   Yb3N2
_chemical_formula_sum   'Yb6 N4'
_cell_volume   176.40498675
_cell_formula_units_Z   2
loop_
 _symmetry_equiv_pos_site_id
 _symmetry_equiv_pos_as_xyz
  1  'x, y, z'
loop_
 _atom_site_type_symbol
 _atom_site_label
 _atom_site_symmetry_multiplicity
 _atom_site_fract_x
 _atom_site_fract_y
 _atom_site_fract_z
 _atom_site_occupancy
  Yb  Yb0  1  0.545908  0.954092  0.250000  1
  Yb  Yb1  1  0.250000  0.545908  0.954092  1
  Yb  Yb2  1  0.954092  0.250000  0.545908  1
  Yb  Yb3  1  0.045908  0.750000  0.454092  1
  Yb  Yb4  1  0.750000  0.454092  0.045908  1
  Yb  Yb5  1  0.454092  0.045908  0.750000  1
  N  N6  1  0.645512  0.645512  0.645512  1
  N  N7  1  0.854488  0.854488  0.854488  1
  N  N8  1  0.145512  0.145512  0.145512  1
  N  N9  1  0.354488  0.354488  0.354488  1
