# generated using pymatgen
data_Co6O7F5
_symmetry_space_group_name_H-M   'P 1'
_cell_length_a   5.54235234
_cell_length_b   5.54235234
_cell_length_c   7.66782273
_cell_angle_alpha   66.99823818
_cell_angle_beta   113.00176182
_cell_angle_gamma   112.55333554
_symmetry_Int_Tables_number   1
_chemical_formula_structural   Co6O7F5
_chemical_formula_sum   'Co6 O7 F5'
_cell_volume   192.02275974
_cell_formula_units_Z   1
loop_
 _symmetry_equiv_pos_site_id
 _symmetry_equiv_pos_as_xyz
  1  'x, y, z'
loop_
 _atom_site_type_symbol
 _atom_site_label
 _atom_site_symmetry_multiplicity
 _atom_site_fract_x
 _atom_site_fract_y
 _atom_site_fract_z
 _atom_site_occupancy
  Co  Co0  1  0.334954  0.665046  0.834748  1
  Co  Co1  1  0.343544  0.656456  0.330391  1
  Co  Co2  1  0.666486  0.333514  0.654213  1
  Co  Co3  1  0.654028  0.345972  0.185513  1
  Co  Co4  1  0.001697  0.998303  0.497552  1
  Co  Co5  1  0.998532  0.001468  0.001712  1
  O  O6  1  0.637755  0.976964  0.330921  1
  O  O7  1  0.973462  0.634703  0.664017  1
  O  O8  1  0.561788  0.438212  0.374163  1
  O  O9  1  0.023036  0.362245  0.330921  1
  O  O10  1  0.365297  0.026538  0.664017  1
  O  O11  1  0.689265  0.692939  0.007617  1
  O  O12  1  0.307061  0.310735  0.007617  1
  F  F13  1  0.436915  0.563085  0.628218  1
  F  F14  1  0.105169  0.894831  0.291651  1
  F  F15  1  0.770711  0.229289  0.953667  1
  F  F16  1  0.225341  0.774659  0.033651  1
  F  F17  1  0.904960  0.095040  0.709411  1
