# generated using pymatgen
data_Mn6O5F7
_symmetry_space_group_name_H-M   'P 1'
_cell_length_a   4.67736015
_cell_length_b   5.74669351
_cell_length_c   15.67342379
_cell_angle_alpha   90.03079296
_cell_angle_beta   90.61532744
_cell_angle_gamma   91.65221135
_symmetry_Int_Tables_number   1
_chemical_formula_structural   Mn6O5F7
_chemical_formula_sum   'Mn12 O10 F14'
_cell_volume   421.09194008
_cell_formula_units_Z   2
loop_
 _symmetry_equiv_pos_site_id
 _symmetry_equiv_pos_as_xyz
  1  'x, y, z'
loop_
 _atom_site_type_symbol
 _atom_site_label
 _atom_site_symmetry_multiplicity
 _atom_site_fract_x
 _atom_site_fract_y
 _atom_site_fract_z
 _atom_site_occupancy
  Mn  Mn0  1  0.014864  0.823664  0.580627  1
  Mn  Mn1  1  0.019982  0.154981  0.756969  1
  Mn  Mn2  1  0.034282  0.833217  0.918663  1
  Mn  Mn3  1  0.004468  0.850245  0.259203  1
  Mn  Mn4  1  0.024166  0.142875  0.423059  1
  Mn  Mn5  1  0.020756  0.139406  0.088729  1
  Mn  Mn6  1  0.484696  0.660680  0.411267  1
  Mn  Mn7  1  0.503602  0.673110  0.071607  1
  Mn  Mn8  1  0.510740  0.647697  0.747187  1
  Mn  Mn9  1  0.489944  0.359187  0.914968  1
  Mn  Mn10  1  0.496091  0.358736  0.577601  1
  Mn  Mn11  1  0.497347  0.352766  0.247819  1
  O  O12  1  0.212922  0.893221  0.366070  1
  O  O13  1  0.220137  0.883395  0.027560  1
  O  O14  1  0.235504  0.113063  0.865955  1
  O  O15  1  0.224500  0.108974  0.529697  1
  O  O16  1  0.227165  0.112653  0.201566  1
  O  O17  1  0.288650  0.605690  0.851845  1
  O  O18  1  0.282713  0.598955  0.516967  1
  O  O19  1  0.724992  0.618159  0.969385  1
  O  O20  1  0.722264  0.612175  0.637693  1
  O  O21  1  0.705439  0.627158  0.305479  1
  F  F22  1  0.234726  0.884178  0.695387  1
  F  F23  1  0.259081  0.391058  0.690384  1
  F  F24  1  0.252049  0.392372  0.353507  1
  F  F25  1  0.267611  0.614955  0.182527  1
  F  F26  1  0.254343  0.386825  0.027044  1
  F  F27  1  0.737430  0.382093  0.802131  1
  F  F28  1  0.751578  0.378627  0.465468  1
  F  F29  1  0.728851  0.384901  0.136177  1
  F  F30  1  0.782788  0.873004  0.810491  1
  F  F31  1  0.748015  0.880119  0.476317  1
  F  F32  1  0.757622  0.121148  0.642889  1
  F  F33  1  0.751899  0.128384  0.978017  1
  F  F34  1  0.767071  0.879922  0.151173  1
  F  F35  1  0.761710  0.132407  0.318574  1
