# generated using pymatgen
data_AgNO3
_symmetry_space_group_name_H-M   'P 1'
_cell_length_a   4.15183603
_cell_length_b   4.15183603
_cell_length_c   4.15183603
_cell_angle_alpha   77.22416135
_cell_angle_beta   77.22416135
_cell_angle_gamma   77.22416135
_symmetry_Int_Tables_number   1
_chemical_formula_structural   AgNO3
_chemical_formula_sum   'Ag1 N1 O3'
_cell_volume   66.94304678
_cell_formula_units_Z   1
loop_
 _symmetry_equiv_pos_site_id
 _symmetry_equiv_pos_as_xyz
  1  'x, y, z'
loop_
 _atom_site_type_symbol
 _atom_site_label
 _atom_site_symmetry_multiplicity
 _atom_site_fract_x
 _atom_site_fract_y
 _atom_site_fract_z
 _atom_site_occupancy
  Ag  Ag0  1  0.998040  0.998040  0.998040  1
  N  N1  1  0.574117  0.574117  0.574117  1
  O  O2  1  0.434881  0.859481  0.434881  1
  O  O3  1  0.434881  0.434881  0.859481  1
  O  O4  1  0.859481  0.434881  0.434881  1
