# generated using pymatgen
data_TmSb(PbO3)2
_symmetry_space_group_name_H-M   'P 1'
_cell_length_a   5.88073634
_cell_length_b   5.88073634
_cell_length_c   10.21978505
_cell_angle_alpha   74.03000672
_cell_angle_beta   105.96999328
_cell_angle_gamma   120.34340457
_symmetry_Int_Tables_number   1
_chemical_formula_structural   TmSb(PbO3)2
_chemical_formula_sum   'Tm2 Sb2 Pb4 O12'
_cell_volume   289.26963561
_cell_formula_units_Z   2
loop_
 _symmetry_equiv_pos_site_id
 _symmetry_equiv_pos_as_xyz
  1  'x, y, z'
loop_
 _atom_site_type_symbol
 _atom_site_label
 _atom_site_symmetry_multiplicity
 _atom_site_fract_x
 _atom_site_fract_y
 _atom_site_fract_z
 _atom_site_occupancy
  Tm  Tm0  1  0.757052  0.757052  0.750000  1
  Tm  Tm1  1  0.242948  0.242948  0.250000  1
  Sb  Sb2  1  1.000000  0.500000  0.500000  1
  Sb  Sb3  1  0.500000  1.000000  0.000000  1
  Pb  Pb4  1  0.370168  0.108535  0.625407  1
  Pb  Pb5  1  0.108535  0.370168  0.874593  1
  Pb  Pb6  1  0.629832  0.891465  0.374593  1
  Pb  Pb7  1  0.891465  0.629832  0.125407  1
  O  O8  1  0.326706  0.636799  0.118426  1
  O  O9  1  0.636799  0.326706  0.381574  1
  O  O10  1  0.673294  0.363201  0.881574  1
  O  O11  1  0.363201  0.673294  0.618426  1
  O  O12  1  0.118109  0.816095  0.348510  1
  O  O13  1  0.816095  0.118109  0.151490  1
  O  O14  1  0.881891  0.183905  0.651490  1
  O  O15  1  0.183905  0.881891  0.848510  1
  O  O16  1  0.882563  0.690314  0.583044  1
  O  O17  1  0.690314  0.882563  0.916956  1
  O  O18  1  0.117437  0.309686  0.416956  1
  O  O19  1  0.309686  0.117437  0.083044  1
