# generated using pymatgen
data_Mn6O7F5
_symmetry_space_group_name_H-M   'P 1'
_cell_length_a   4.62997767
_cell_length_b   5.59810991
_cell_length_c   7.76447189
_cell_angle_alpha   87.07417678
_cell_angle_beta   89.40675003
_cell_angle_gamma   89.03637610
_symmetry_Int_Tables_number   1
_chemical_formula_structural   Mn6O7F5
_chemical_formula_sum   'Mn6 O7 F5'
_cell_volume   200.94846144
_cell_formula_units_Z   1
loop_
 _symmetry_equiv_pos_site_id
 _symmetry_equiv_pos_as_xyz
  1  'x, y, z'
loop_
 _atom_site_type_symbol
 _atom_site_label
 _atom_site_symmetry_multiplicity
 _atom_site_fract_x
 _atom_site_fract_y
 _atom_site_fract_z
 _atom_site_occupancy
  Mn  Mn0  1  0.465906  0.483605  0.988870  1
  Mn  Mn1  1  0.516265  0.160090  0.333844  1
  Mn  Mn2  1  0.523430  0.827091  0.664502  1
  Mn  Mn3  1  0.993463  0.673112  0.323956  1
  Mn  Mn4  1  0.966875  0.347089  0.675582  1
  Mn  Mn5  1  0.009182  0.009237  0.017322  1
  O  O6  1  0.805986  0.633638  0.549177  1
  O  O7  1  0.812224  0.967058  0.232753  1
  O  O8  1  0.801885  0.290279  0.908579  1
  O  O9  1  0.694594  0.128873  0.566871  1
  O  O10  1  0.307424  0.535487  0.761913  1
  O  O11  1  0.305179  0.198897  0.109408  1
  O  O12  1  0.199652  0.708891  0.102145  1
  F  F13  1  0.712432  0.797545  0.909052  1
  F  F14  1  0.687348  0.471388  0.220030  1
  F  F15  1  0.296582  0.868664  0.434158  1
  F  F16  1  0.197389  0.371215  0.426890  1
  F  F17  1  0.204182  0.027841  0.774946  1
