# generated using pymatgen
data_Mn12O7F17
_symmetry_space_group_name_H-M   'P 1'
_cell_length_a   4.81562881
_cell_length_b   5.78655506
_cell_length_c   15.90945732
_cell_angle_alpha   89.20297292
_cell_angle_beta   88.77239856
_cell_angle_gamma   86.24775308
_symmetry_Int_Tables_number   1
_chemical_formula_structural   Mn12O7F17
_chemical_formula_sum   'Mn12 O7 F17'
_cell_volume   442.24472253
_cell_formula_units_Z   1
loop_
 _symmetry_equiv_pos_site_id
 _symmetry_equiv_pos_as_xyz
  1  'x, y, z'
loop_
 _atom_site_type_symbol
 _atom_site_label
 _atom_site_symmetry_multiplicity
 _atom_site_fract_x
 _atom_site_fract_y
 _atom_site_fract_z
 _atom_site_occupancy
  Mn  Mn0  1  0.005502  0.851239  0.417565  1
  Mn  Mn1  1  0.981017  0.164466  0.238083  1
  Mn  Mn2  1  0.004335  0.844967  0.078841  1
  Mn  Mn3  1  0.953376  0.842118  0.755098  1
  Mn  Mn4  1  0.962090  0.160758  0.580901  1
  Mn  Mn5  1  0.002964  0.165608  0.908382  1
  Mn  Mn6  1  0.497941  0.647363  0.587038  1
  Mn  Mn7  1  0.504538  0.659274  0.919461  1
  Mn  Mn8  1  0.486292  0.668578  0.260185  1
  Mn  Mn9  1  0.505445  0.347968  0.083125  1
  Mn  Mn10  1  0.494798  0.342471  0.419465  1
  Mn  Mn11  1  0.545014  0.353046  0.751703  1
  O  O12  1  0.771974  0.113732  0.128675  1
  O  O13  1  0.776309  0.117054  0.469665  1
  O  O14  1  0.768946  0.111648  0.804259  1
  O  O15  1  0.709935  0.379171  0.643460  1
  O  O16  1  0.721735  0.626306  0.813264  1
  O  O17  1  0.293285  0.617036  0.027148  1
  O  O18  1  0.276217  0.616170  0.370637  1
  F  F19  1  0.785033  0.885057  0.306544  1
  F  F20  1  0.752199  0.877375  0.637761  1
  F  F21  1  0.782221  0.882936  0.971089  1
  F  F22  1  0.740826  0.609400  0.147032  1
  F  F23  1  0.726805  0.382336  0.312089  1
  F  F24  1  0.745745  0.614543  0.475189  1
  F  F25  1  0.741324  0.394245  0.975228  1
  F  F26  1  0.284130  0.387854  0.193552  1
  F  F27  1  0.269356  0.385003  0.528485  1
  F  F28  1  0.298177  0.380737  0.856386  1
  F  F29  1  0.241332  0.604772  0.702362  1
  F  F30  1  0.231221  0.881930  0.185862  1
  F  F31  1  0.226808  0.891578  0.529146  1
  F  F32  1  0.237726  0.109190  0.352284  1
  F  F33  1  0.247139  0.121879  0.019736  1
  F  F34  1  0.237046  0.876911  0.860693  1
  F  F35  1  0.191200  0.085278  0.689606  1
