# generated using pymatgen
data_Fe10O9F11
_symmetry_space_group_name_H-M   'P 1'
_cell_length_a   4.77055870
_cell_length_b   4.77376517
_cell_length_c   15.47769451
_cell_angle_alpha   90.11147571
_cell_angle_beta   90.13058151
_cell_angle_gamma   93.27107474
_symmetry_Int_Tables_number   1
_chemical_formula_structural   Fe10O9F11
_chemical_formula_sum   'Fe10 O9 F11'
_cell_volume   351.90573815
_cell_formula_units_Z   1
loop_
 _symmetry_equiv_pos_site_id
 _symmetry_equiv_pos_as_xyz
  1  'x, y, z'
loop_
 _atom_site_type_symbol
 _atom_site_label
 _atom_site_symmetry_multiplicity
 _atom_site_fract_x
 _atom_site_fract_y
 _atom_site_fract_z
 _atom_site_occupancy
  Fe  Fe0  1  0.001415  0.999454  0.002011  1
  Fe  Fe1  1  0.978931  0.966655  0.206498  1
  Fe  Fe2  1  0.039967  0.016805  0.393052  1
  Fe  Fe3  1  0.999828  0.977665  0.602348  1
  Fe  Fe4  1  0.039039  0.016797  0.793723  1
  Fe  Fe5  1  0.513761  0.508280  0.095526  1
  Fe  Fe6  1  0.497448  0.477364  0.505288  1
  Fe  Fe7  1  0.473497  0.525882  0.300429  1
  Fe  Fe8  1  0.460312  0.517195  0.693979  1
  Fe  Fe9  1  0.495716  0.486438  0.904528  1
  O  O10  1  0.200836  0.803127  0.306004  1
  O  O11  1  0.187491  0.810303  0.700887  1
  O  O12  1  0.302040  0.295641  0.000405  1
  O  O13  1  0.318927  0.318464  0.402322  1
  O  O14  1  0.290579  0.293195  0.599220  1
  O  O15  1  0.316680  0.321078  0.801527  1
  O  O16  1  0.705086  0.698761  0.996275  1
  O  O17  1  0.670802  0.672712  0.198206  1
  O  O18  1  0.690464  0.691797  0.599097  1
  F  F19  1  0.196903  0.793172  0.095362  1
  F  F20  1  0.195283  0.805187  0.498691  1
  F  F21  1  0.198552  0.812298  0.898445  1
  F  F22  1  0.286782  0.291858  0.197192  1
  F  F23  1  0.709274  0.710592  0.403910  1
  F  F24  1  0.706338  0.712747  0.802861  1
  F  F25  1  0.799889  0.191674  0.096917  1
  F  F26  1  0.812275  0.185553  0.498702  1
  F  F27  1  0.792883  0.211216  0.307132  1
  F  F28  1  0.815881  0.192514  0.897405  1
  F  F29  1  0.803120  0.195572  0.702056  1
