# generated using pymatgen
data_CrO
_symmetry_space_group_name_H-M   'P 1'
_cell_length_a   5.75698046
_cell_length_b   5.75698046
_cell_length_c   5.81641701
_cell_angle_alpha   90.00000000
_cell_angle_beta   90.00000000
_cell_angle_gamma   90.00000000
_symmetry_Int_Tables_number   1
_chemical_formula_structural   CrO
_chemical_formula_sum   'Cr8 O8'
_cell_volume   192.77248539
_cell_formula_units_Z   8
loop_
 _symmetry_equiv_pos_site_id
 _symmetry_equiv_pos_as_xyz
  1  'x, y, z'
loop_
 _atom_site_type_symbol
 _atom_site_label
 _atom_site_symmetry_multiplicity
 _atom_site_fract_x
 _atom_site_fract_y
 _atom_site_fract_z
 _atom_site_occupancy
  Cr  Cr0  1  0.000000  0.000000  0.250000  1
  Cr  Cr1  1  0.000000  0.000000  0.750000  1
  Cr  Cr2  1  0.000000  0.500000  0.500000  1
  Cr  Cr3  1  0.247410  0.458762  0.000000  1
  Cr  Cr4  1  0.458762  0.752590  0.500000  1
  Cr  Cr5  1  0.500000  0.000000  0.000000  1
  Cr  Cr6  1  0.541238  0.247410  0.500000  1
  Cr  Cr7  1  0.752590  0.541238  0.000000  1
  O  O8  1  0.190616  0.693451  0.264136  1
  O  O9  1  0.190616  0.693451  0.735864  1
  O  O10  1  0.306549  0.190616  0.235864  1
  O  O11  1  0.306549  0.190616  0.764136  1
  O  O12  1  0.693451  0.809384  0.235864  1
  O  O13  1  0.693451  0.809384  0.764136  1
  O  O14  1  0.809384  0.306549  0.264136  1
  O  O15  1  0.809384  0.306549  0.735864  1
