# generated using pymatgen
data_Cr4OF11
_symmetry_space_group_name_H-M   'P 1'
_cell_length_a   5.07503610
_cell_length_b   5.34084509
_cell_length_c   16.94070503
_cell_angle_alpha   88.95705732
_cell_angle_beta   97.99832923
_cell_angle_gamma   117.91800321
_symmetry_Int_Tables_number   1
_chemical_formula_structural   Cr4OF11
_chemical_formula_sum   'Cr8 O2 F22'
_cell_volume   401.21209414
_cell_formula_units_Z   2
loop_
 _symmetry_equiv_pos_site_id
 _symmetry_equiv_pos_as_xyz
  1  'x, y, z'
loop_
 _atom_site_type_symbol
 _atom_site_label
 _atom_site_symmetry_multiplicity
 _atom_site_fract_x
 _atom_site_fract_y
 _atom_site_fract_z
 _atom_site_occupancy
  Cr  Cr0  1  0.741073  0.387072  0.128052  1
  Cr  Cr1  1  0.751939  0.871270  0.624732  1
  Cr  Cr2  1  0.500647  0.249031  0.749935  1
  Cr  Cr3  1  0.505109  0.743197  0.247246  1
  Cr  Cr4  1  0.244271  0.132009  0.377398  1
  Cr  Cr5  1  0.250082  0.625583  0.875222  1
  Cr  Cr6  1  0.006915  0.488811  0.495729  1
  Cr  Cr7  1  0.998908  0.002961  0.001097  1
  O  O8  1  0.064319  0.341261  0.407092  1
  O  O9  1  0.564470  0.593805  0.157512  1
  F  F10  1  0.434255  0.216321  0.034058  1
  F  F11  1  0.507558  0.063429  0.187982  1
  F  F12  1  0.997789  0.186583  0.562371  1
  F  F13  1  0.991125  0.686639  0.063040  1
  F  F14  1  0.064989  0.032650  0.717298  1
  F  F15  1  0.066539  0.533262  0.217983  1
  F  F16  1  0.437754  0.406402  0.843659  1
  F  F17  1  0.430510  0.910421  0.340092  1
  F  F18  1  0.435090  0.716130  0.531962  1
  F  F19  1  0.931195  0.163622  0.093391  1
  F  F20  1  0.506345  0.562945  0.687839  1
  F  F21  1  0.494931  0.436564  0.313142  1
  F  F22  1  0.062928  0.844485  0.907322  1
  F  F23  1  0.563934  0.091236  0.656336  1
  F  F24  1  0.568188  0.282921  0.468008  1
  F  F25  1  0.935572  0.466373  0.782517  1
  F  F26  1  0.935716  0.653603  0.589661  1
  F  F27  1  0.934924  0.966147  0.283445  1
  F  F28  1  0.005525  0.314015  0.937859  1
  F  F29  1  0.008110  0.811290  0.438185  1
  F  F30  1  0.494670  0.935950  0.812137  1
  F  F31  1  0.564622  0.784013  0.967698  1
