# generated using pymatgen
data_Li4Mn7(PO4)6
_symmetry_space_group_name_H-M   'P 1'
_cell_length_a   6.63916816
_cell_length_b   8.30625621
_cell_length_c   9.74704810
_cell_angle_alpha   102.62277257
_cell_angle_beta   106.48256961
_cell_angle_gamma   101.13725103
_symmetry_Int_Tables_number   1
_chemical_formula_structural   Li4Mn7(PO4)6
_chemical_formula_sum   'Li4 Mn7 P6 O24'
_cell_volume   483.90895675
_cell_formula_units_Z   1
loop_
 _symmetry_equiv_pos_site_id
 _symmetry_equiv_pos_as_xyz
  1  'x, y, z'
loop_
 _atom_site_type_symbol
 _atom_site_label
 _atom_site_symmetry_multiplicity
 _atom_site_fract_x
 _atom_site_fract_y
 _atom_site_fract_z
 _atom_site_occupancy
  Li  Li0  1  0.448955  0.903136  0.885743  1
  Li  Li1  1  0.315220  0.427149  0.668008  1
  Li  Li2  1  0.267874  0.503194  0.391473  1
  Li  Li3  1  0.694332  0.573544  0.337800  1
  Mn  Mn4  1  0.071319  0.752285  0.548852  1
  Mn  Mn5  1  0.279096  0.808216  0.279670  1
  Mn  Mn6  1  0.015989  0.005679  0.014237  1
  Mn  Mn7  1  0.660857  0.569868  0.913316  1
  Mn  Mn8  1  0.347301  0.428514  0.084722  1
  Mn  Mn9  1  0.724766  0.200211  0.718499  1
  Mn  Mn10  1  0.918327  0.254168  0.456599  1
  P  P11  1  0.098050  0.590205  0.830744  1
  P  P12  1  0.236385  0.149534  0.773257  1
  P  P13  1  0.599704  0.770252  0.628902  1
  P  P14  1  0.397846  0.229536  0.374679  1
  P  P15  1  0.765325  0.852293  0.227841  1
  P  P16  1  0.903792  0.405322  0.163912  1
  O  O17  1  0.125364  0.778921  0.913074  1
  O  O18  1  0.077722  0.556803  0.662422  1
  O  O19  1  0.248699  0.964563  0.724413  1
  O  O20  1  0.035049  0.186081  0.669273  1
  O  O21  1  0.220362  0.177692  0.934192  1
  O  O22  1  0.309074  0.539182  0.904630  1
  O  O23  1  0.118056  0.533532  0.168739  1
  O  O24  1  0.377007  0.755109  0.501824  1
  O  O25  1  0.251139  0.290899  0.461967  1
  O  O26  1  0.450525  0.269984  0.775176  1
  O  O27  1  0.543244  0.638908  0.711974  1
  O  O28  1  0.691912  0.949890  0.748348  1
  O  O29  1  0.278699  0.054920  0.250188  1
  O  O30  1  0.453735  0.372222  0.299884  1
  O  O31  1  0.549489  0.731737  0.225716  1
  O  O32  1  0.752191  0.726583  0.543202  1
  O  O33  1  0.606216  0.216679  0.490799  1
  O  O34  1  0.894788  0.467603  0.840161  1
  O  O35  1  0.695733  0.458912  0.093518  1
  O  O36  1  0.770876  0.824554  0.062144  1
  O  O37  1  0.962601  0.800248  0.323294  1
  O  O38  1  0.771695  0.037429  0.285757  1
  O  O39  1  0.931013  0.439405  0.334507  1
  O  O40  1  0.893593  0.223982  0.080464  1
