# generated using pymatgen
data_NaNiCSO7
_symmetry_space_group_name_H-M   'P 1'
_cell_length_a   5.18278938
_cell_length_b   6.55335074
_cell_length_c   9.05199681
_cell_angle_alpha   90.00000000
_cell_angle_beta   92.14297900
_cell_angle_gamma   90.00000000
_symmetry_Int_Tables_number   1
_chemical_formula_structural   NaNiCSO7
_chemical_formula_sum   'Na2 Ni2 C2 S2 O14'
_cell_volume   307.23276094
_cell_formula_units_Z   2
loop_
 _symmetry_equiv_pos_site_id
 _symmetry_equiv_pos_as_xyz
  1  'x, y, z'
loop_
 _atom_site_type_symbol
 _atom_site_label
 _atom_site_symmetry_multiplicity
 _atom_site_fract_x
 _atom_site_fract_y
 _atom_site_fract_z
 _atom_site_occupancy
  Na  Na0  1  0.761234  0.524089  0.239177  1
  Na  Na1  1  0.238766  0.024089  0.760823  1
  Ni  Ni2  1  0.217069  0.236702  0.351417  1
  Ni  Ni3  1  0.782931  0.736702  0.648583  1
  C  C4  1  0.276487  0.255574  0.082499  1
  C  C5  1  0.723513  0.755574  0.917501  1
  S  S6  1  0.277014  0.745858  0.425699  1
  S  S7  1  0.722986  0.245858  0.574301  1
  O  O8  1  0.692459  0.756126  0.054418  1
  O  O9  1  0.050928  0.253443  0.139740  1
  O  O10  1  0.467127  0.255712  0.179784  1
  O  O11  1  0.215695  0.925677  0.333414  1
  O  O12  1  0.197082  0.562425  0.338447  1
  O  O13  1  0.855594  0.254508  0.430936  1
  O  O14  1  0.563067  0.732037  0.459047  1
  O  O15  1  0.436933  0.232037  0.540953  1
  O  O16  1  0.144406  0.754508  0.569064  1
  O  O17  1  0.802918  0.062425  0.661553  1
  O  O18  1  0.784305  0.425677  0.666586  1
  O  O19  1  0.532873  0.755712  0.820216  1
  O  O20  1  0.949072  0.753443  0.860260  1
  O  O21  1  0.307541  0.256126  0.945582  1
