# generated using pymatgen
data_LiFeSiO4
_symmetry_space_group_name_H-M   'P 1'
_cell_length_a   8.60871772
_cell_length_b   8.60871772
_cell_length_c   8.60871772
_cell_angle_alpha   107.36503218
_cell_angle_beta   107.36503218
_cell_angle_gamma   107.36503218
_symmetry_Int_Tables_number   1
_chemical_formula_structural   LiFeSiO4
_chemical_formula_sum   'Li6 Fe6 Si6 O24'
_cell_volume   525.94559315
_cell_formula_units_Z   6
loop_
 _symmetry_equiv_pos_site_id
 _symmetry_equiv_pos_as_xyz
  1  'x, y, z'
loop_
 _atom_site_type_symbol
 _atom_site_label
 _atom_site_symmetry_multiplicity
 _atom_site_fract_x
 _atom_site_fract_y
 _atom_site_fract_z
 _atom_site_occupancy
  Li  Li0  1  0.232559  0.459659  0.057369  1
  Li  Li1  1  0.942631  0.767441  0.540341  1
  Li  Li2  1  0.540341  0.942631  0.767441  1
  Li  Li3  1  0.459659  0.057369  0.232559  1
  Li  Li4  1  0.057369  0.232559  0.459659  1
  Li  Li5  1  0.767441  0.540341  0.942631  1
  Fe  Fe6  1  0.713657  0.890942  0.126721  1
  Fe  Fe7  1  0.109058  0.873279  0.286343  1
  Fe  Fe8  1  0.873279  0.286343  0.109058  1
  Fe  Fe9  1  0.126721  0.713657  0.890942  1
  Fe  Fe10  1  0.890942  0.126721  0.713657  1
  Fe  Fe11  1  0.286343  0.109058  0.873279  1
  Si  Si12  1  0.560786  0.784505  0.388966  1
  Si  Si13  1  0.611034  0.439214  0.215495  1
  Si  Si14  1  0.215495  0.611034  0.439214  1
  Si  Si15  1  0.784505  0.388966  0.560786  1
  Si  Si16  1  0.388966  0.560786  0.784505  1
  Si  Si17  1  0.439214  0.215495  0.611034  1
  O  O18  1  0.950666  0.980077  0.295627  1
  O  O19  1  0.019923  0.704373  0.049334  1
  O  O20  1  0.565137  0.885576  0.257601  1
  O  O21  1  0.114424  0.742399  0.434863  1
  O  O22  1  0.656282  0.924084  0.599967  1
  O  O23  1  0.349133  0.648252  0.333556  1
  O  O24  1  0.742399  0.434863  0.114424  1
  O  O25  1  0.666444  0.650867  0.351748  1
  O  O26  1  0.400033  0.343718  0.075916  1
  O  O27  1  0.075916  0.400033  0.343718  1
  O  O28  1  0.351748  0.666445  0.650867  1
  O  O29  1  0.704373  0.049334  0.019923  1
  O  O30  1  0.295627  0.950666  0.980077  1
  O  O31  1  0.648252  0.333556  0.349133  1
  O  O32  1  0.924084  0.599967  0.656282  1
  O  O33  1  0.599967  0.656282  0.924084  1
  O  O34  1  0.333556  0.349133  0.648252  1
  O  O35  1  0.257601  0.565137  0.885576  1
  O  O36  1  0.650867  0.351748  0.666444  1
  O  O37  1  0.343718  0.075916  0.400033  1
  O  O38  1  0.885576  0.257601  0.565137  1
  O  O39  1  0.434863  0.114424  0.742399  1
  O  O40  1  0.980077  0.295627  0.950666  1
  O  O41  1  0.049334  0.019923  0.704373  1
