# generated using pymatgen
data_LiMn2(BO3)2
_symmetry_space_group_name_H-M   'P 1'
_cell_length_a   9.08453834
_cell_length_b   9.08453834
_cell_length_c   10.47190773
_cell_angle_alpha   89.62203154
_cell_angle_beta   90.37796846
_cell_angle_gamma   119.24980600
_symmetry_Int_Tables_number   1
_chemical_formula_structural   LiMn2(BO3)2
_chemical_formula_sum   'Li6 Mn12 B12 O36'
_cell_volume   754.02041855
_cell_formula_units_Z   6
loop_
 _symmetry_equiv_pos_site_id
 _symmetry_equiv_pos_as_xyz
  1  'x, y, z'
loop_
 _atom_site_type_symbol
 _atom_site_label
 _atom_site_symmetry_multiplicity
 _atom_site_fract_x
 _atom_site_fract_y
 _atom_site_fract_z
 _atom_site_occupancy
  Li  Li0  1  0.302303  0.716467  0.323710  1
  Li  Li1  1  0.283533  0.697697  0.823710  1
  Li  Li2  1  0.036007  0.945845  0.084021  1
  Li  Li3  1  0.054155  0.963993  0.584021  1
  Li  Li4  1  0.635177  0.405167  0.331019  1
  Li  Li5  1  0.594833  0.364823  0.831019  1
  Mn  Mn6  1  0.665071  0.747056  0.874829  1
  Mn  Mn7  1  0.670276  0.924833  0.123375  1
  Mn  Mn8  1  0.252944  0.334929  0.374829  1
  Mn  Mn9  1  0.402603  0.948637  0.621061  1
  Mn  Mn10  1  0.075167  0.329724  0.623375  1
  Mn  Mn11  1  0.051363  0.597397  0.121061  1
  Mn  Mn12  1  0.930143  0.357069  0.879446  1
  Mn  Mn13  1  0.642931  0.069857  0.379446  1
  Mn  Mn14  1  0.955394  0.747012  0.365874  1
  Mn  Mn15  1  0.701907  0.598184  0.606997  1
  Mn  Mn16  1  0.401816  0.298093  0.106997  1
  Mn  Mn17  1  0.252988  0.044606  0.865874  1
  B  B18  1  0.749682  0.960995  0.634040  1
  B  B19  1  0.587059  0.695108  0.356593  1
  B  B20  1  0.304892  0.412941  0.856593  1
  B  B21  1  0.039005  0.250318  0.134040  1
  B  B22  1  0.377687  0.953468  0.127154  1
  B  B23  1  0.958274  0.411923  0.369776  1
  B  B24  1  0.046531  0.622313  0.627154  1
  B  B25  1  0.937852  0.702144  0.891515  1
  B  B26  1  0.588077  0.041726  0.869776  1
  B  B27  1  0.741810  0.628541  0.124528  1
  B  B28  1  0.297856  0.062148  0.391515  1
  B  B29  1  0.371459  0.258190  0.624528  1
  O  O30  1  0.674447  0.721351  0.062644  1
  O  O31  1  0.661728  0.862094  0.304145  1
  O  O32  1  0.684053  0.800484  0.693101  1
  O  O33  1  0.648242  0.944835  0.933638  1
  O  O34  1  0.418629  0.596245  0.360270  1
  O  O35  1  0.278649  0.325553  0.562644  1
  O  O36  1  0.403755  0.581371  0.860270  1
  O  O37  1  0.199516  0.315947  0.193101  1
  O  O38  1  0.137906  0.338272  0.804145  1
  O  O39  1  0.428609  0.949349  0.810206  1
  O  O40  1  0.933624  0.083055  0.124345  1
  O  O41  1  0.293406  0.783276  0.146212  1
  O  O42  1  0.380277  0.970943  0.431465  1
  O  O43  1  0.916945  0.066376  0.624345  1
  O  O44  1  0.055165  0.351758  0.433638  1
  O  O45  1  0.216724  0.706594  0.646212  1
  O  O46  1  0.998588  0.366485  0.078011  1
  O  O47  1  0.050651  0.571391  0.310206  1
  O  O48  1  0.953929  0.449794  0.663211  1
  O  O49  1  0.029057  0.619723  0.931465  1
  O  O50  1  0.633515  0.001412  0.578011  1
  O  O51  1  0.127749  0.994750  0.394528  1
  O  O52  1  0.789464  0.324539  0.368199  1
  O  O53  1  0.961019  0.700041  0.574425  1
  O  O54  1  0.913663  0.718149  0.157694  1
  O  O55  1  0.005250  0.872251  0.894528  1
  O  O56  1  0.675461  0.210536  0.868199  1
  O  O57  1  0.550206  0.046071  0.163211  1
  O  O58  1  0.769256  0.602433  0.852037  1
  O  O59  1  0.643619  0.464438  0.151763  1
  O  O60  1  0.696923  0.641451  0.405735  1
  O  O61  1  0.535562  0.356381  0.651763  1
  O  O62  1  0.299959  0.038981  0.074425  1
  O  O63  1  0.397567  0.230744  0.352037  1
  O  O64  1  0.281851  0.086337  0.657694  1
  O  O65  1  0.358549  0.303077  0.905735  1
