# generated using pymatgen
data_PtF4
_symmetry_space_group_name_H-M   'P 1'
_cell_length_a   6.77567146
_cell_length_b   5.69048488
_cell_length_c   5.60424167
_cell_angle_alpha   73.72057261
_cell_angle_beta   53.72322237
_cell_angle_gamma   52.55620501
_symmetry_Int_Tables_number   1
_chemical_formula_structural   PtF4
_chemical_formula_sum   'Pt2 F8'
_cell_volume   137.23617530
_cell_formula_units_Z   2
loop_
 _symmetry_equiv_pos_site_id
 _symmetry_equiv_pos_as_xyz
  1  'x, y, z'
loop_
 _atom_site_type_symbol
 _atom_site_label
 _atom_site_symmetry_multiplicity
 _atom_site_fract_x
 _atom_site_fract_y
 _atom_site_fract_z
 _atom_site_occupancy
  Pt  Pt0  1  0.753309  0.246691  0.246691  1
  Pt  Pt1  1  0.003309  0.496691  0.496691  1
  F  F2  1  0.991497  0.690626  0.736537  1
  F  F3  1  0.581340  0.736537  0.690626  1
  F  F4  1  0.033596  0.783796  0.194351  1
  F  F5  1  0.988257  0.194351  0.783796  1
  F  F6  1  0.055649  0.261743  0.216404  1
  F  F7  1  0.466204  0.216404  0.261743  1
  F  F8  1  0.559374  0.258503  0.668660  1
  F  F9  1  0.513463  0.668660  0.258503  1
