# generated using pymatgen
data_LiFePO5
_symmetry_space_group_name_H-M   'P 1'
_cell_length_a   6.79937876
_cell_length_b   6.94582351
_cell_length_c   8.14270410
_cell_angle_alpha   90.32287949
_cell_angle_beta   92.04519988
_cell_angle_gamma   115.22677850
_symmetry_Int_Tables_number   1
_chemical_formula_structural   LiFePO5
_chemical_formula_sum   'Li4 Fe4 P4 O20'
_cell_volume   347.56770415
_cell_formula_units_Z   4
loop_
 _symmetry_equiv_pos_site_id
 _symmetry_equiv_pos_as_xyz
  1  'x, y, z'
loop_
 _atom_site_type_symbol
 _atom_site_label
 _atom_site_symmetry_multiplicity
 _atom_site_fract_x
 _atom_site_fract_y
 _atom_site_fract_z
 _atom_site_occupancy
  Li  Li0  1  0.301402  0.799571  0.431244  1
  Li  Li1  1  0.208288  0.273383  0.070056  1
  Li  Li2  1  0.791712  0.726617  0.929944  1
  Li  Li3  1  0.698598  0.200429  0.568756  1
  Fe  Fe4  1  0.246688  0.497462  0.748263  1
  Fe  Fe5  1  0.246418  0.997095  0.753945  1
  Fe  Fe6  1  0.753582  0.002905  0.246055  1
  Fe  Fe7  1  0.753312  0.502538  0.251737  1
  P  P8  1  0.239780  0.754547  0.088544  1
  P  P9  1  0.260846  0.241537  0.412291  1
  P  P10  1  0.739154  0.758463  0.587709  1
  P  P11  1  0.760220  0.245453  0.911456  1
  O  O12  1  0.134544  0.866137  0.975167  1
  O  O13  1  0.088224  0.640254  0.229761  1
  O  O14  1  0.228414  0.741012  0.669159  1
  O  O15  1  0.288196  0.590335  0.986014  1
  O  O16  1  0.200226  0.392804  0.518703  1
  O  O17  1  0.446587  0.923278  0.178841  1
  O  O18  1  0.058864  0.079878  0.312518  1
  O  O19  1  0.271541  0.258454  0.831881  1
  O  O20  1  0.642315  0.882642  0.478495  1
  O  O21  1  0.419034  0.367751  0.278285  1
  O  O22  1  0.580966  0.632249  0.721715  1
  O  O23  1  0.357685  0.117358  0.521505  1
  O  O24  1  0.728459  0.741546  0.168119  1
  O  O25  1  0.941136  0.920122  0.687482  1
  O  O26  1  0.553413  0.076722  0.821159  1
  O  O27  1  0.799774  0.607196  0.481297  1
  O  O28  1  0.711804  0.409665  0.013986  1
  O  O29  1  0.771586  0.258988  0.330841  1
  O  O30  1  0.911776  0.359746  0.770239  1
  O  O31  1  0.865456  0.133863  0.024833  1
