# generated using pymatgen
data_Ti5TlSe8
_symmetry_space_group_name_H-M   'P 1'
_cell_length_a   9.61871497
_cell_length_b   9.61871497
_cell_length_c   9.24489297
_cell_angle_alpha   75.72251607
_cell_angle_beta   104.27748393
_cell_angle_gamma   158.58660616
_symmetry_Int_Tables_number   1
_chemical_formula_structural   Ti5TlSe8
_chemical_formula_sum   'Ti5 Tl1 Se8'
_cell_volume   302.28194176
_cell_formula_units_Z   1
loop_
 _symmetry_equiv_pos_site_id
 _symmetry_equiv_pos_as_xyz
  1  'x, y, z'
loop_
 _atom_site_type_symbol
 _atom_site_label
 _atom_site_symmetry_multiplicity
 _atom_site_fract_x
 _atom_site_fract_y
 _atom_site_fract_z
 _atom_site_occupancy
  Ti  Ti0  1  0.500000  0.500000  0.500000  1
  Ti  Ti1  1  0.152387  0.847613  0.498421  1
  Ti  Ti2  1  0.209071  0.790929  0.848890  1
  Ti  Ti3  1  0.790929  0.209071  0.151110  1
  Ti  Ti4  1  0.847613  0.152387  0.501579  1
  Tl  Tl5  1  0.000000  0.000000  0.000000  1
  Se  Se6  1  0.926712  0.073288  0.322055  1
  Se  Se7  1  0.339356  0.660644  0.001341  1
  Se  Se8  1  0.660644  0.339356  0.998659  1
  Se  Se9  1  0.742316  0.257684  0.661735  1
  Se  Se10  1  0.257684  0.742316  0.338265  1
  Se  Se11  1  0.414302  0.585698  0.680851  1
  Se  Se12  1  0.585698  0.414302  0.319149  1
  Se  Se13  1  0.073288  0.926712  0.677945  1
