# generated using pymatgen
data_Li2Mn3(BO3)3
_symmetry_space_group_name_H-M   'P 1'
_cell_length_a   8.26885100
_cell_length_b   12.71407818
_cell_length_c   8.28046805
_cell_angle_alpha   90.00000000
_cell_angle_beta   119.80934226
_cell_angle_gamma   90.00000000
_symmetry_Int_Tables_number   1
_chemical_formula_structural   Li2Mn3(BO3)3
_chemical_formula_sum   'Li8 Mn12 B12 O36'
_cell_volume   755.34737331
_cell_formula_units_Z   4
loop_
 _symmetry_equiv_pos_site_id
 _symmetry_equiv_pos_as_xyz
  1  'x, y, z'
loop_
 _atom_site_type_symbol
 _atom_site_label
 _atom_site_symmetry_multiplicity
 _atom_site_fract_x
 _atom_site_fract_y
 _atom_site_fract_z
 _atom_site_occupancy
  Li  Li0  1  0.703013  0.500000  0.722013  1
  Li  Li1  1  0.699946  0.000000  0.722799  1
  Li  Li2  1  0.279282  0.500000  0.978138  1
  Li  Li3  1  0.279785  0.748449  0.981781  1
  Li  Li4  1  0.279785  0.251551  0.981781  1
  Li  Li5  1  0.021617  0.751211  0.299733  1
  Li  Li6  1  0.017050  0.000000  0.298985  1
  Li  Li7  1  0.021617  0.248789  0.299733  1
  Mn  Mn8  1  0.980838  0.375153  0.617322  1
  Mn  Mn9  1  0.980838  0.624847  0.617322  1
  Mn  Mn10  1  0.988733  0.874468  0.639771  1
  Mn  Mn11  1  0.988733  0.125532  0.639771  1
  Mn  Mn12  1  0.370613  0.374439  0.368548  1
  Mn  Mn13  1  0.370613  0.625561  0.368548  1
  Mn  Mn14  1  0.379457  0.874640  0.360897  1
  Mn  Mn15  1  0.379457  0.125360  0.360897  1
  Mn  Mn16  1  0.630464  0.875171  0.003269  1
  Mn  Mn17  1  0.649732  0.375956  0.010078  1
  Mn  Mn18  1  0.649732  0.624044  0.010078  1
  Mn  Mn19  1  0.630464  0.124829  0.003269  1
  B  B20  1  0.000577  0.874619  0.008314  1
  B  B21  1  0.006238  0.374025  0.997536  1
  B  B22  1  0.006238  0.625975  0.997536  1
  B  B23  1  0.000577  0.125381  0.008314  1
  B  B24  1  0.327409  0.250079  0.662312  1
  B  B25  1  0.334814  0.000000  0.663280  1
  B  B26  1  0.327409  0.749921  0.662312  1
  B  B27  1  0.332291  0.500000  0.675600  1
  B  B28  1  0.669390  0.750264  0.326446  1
  B  B29  1  0.657723  0.500000  0.331130  1
  B  B30  1  0.669563  0.000000  0.339675  1
  B  B31  1  0.669390  0.249736  0.326446  1
  O  O32  1  0.816028  0.615611  0.897542  1
  O  O33  1  0.809584  0.114597  0.906454  1
  O  O34  1  0.816028  0.384389  0.897542  1
  O  O35  1  0.809584  0.885403  0.906454  1
  O  O36  1  0.776540  0.500000  0.526126  1
  O  O37  1  0.784713  0.000000  0.533129  1
  O  O38  1  0.784981  0.744404  0.516083  1
  O  O39  1  0.784981  0.255596  0.516083  1
  O  O40  1  0.449531  0.500000  0.866243  1
  O  O41  1  0.441371  0.250791  0.853293  1
  O  O42  1  0.441371  0.749209  0.853293  1
  O  O43  1  0.459020  0.000000  0.852963  1
  O  O44  1  0.100564  0.861366  0.918258  1
  O  O45  1  0.111760  0.377630  0.908082  1
  O  O46  1  0.111760  0.622370  0.908082  1
  O  O47  1  0.100564  0.138634  0.918258  1
  O  O48  1  0.395078  0.246784  0.539863  1
  O  O49  1  0.411780  0.000000  0.546992  1
  O  O50  1  0.395078  0.753216  0.539863  1
  O  O51  1  0.409405  0.500000  0.560566  1
  O  O52  1  0.731486  0.500000  0.216818  1
  O  O53  1  0.745160  0.753777  0.208283  1
  O  O54  1  0.745160  0.246223  0.208283  1
  O  O55  1  0.744070  0.000000  0.222643  1
  O  O56  1  0.464311  0.500000  0.259460  1
  O  O57  1  0.476947  0.752678  0.251463  1
  O  O58  1  0.477883  0.000000  0.266307  1
  O  O59  1  0.476947  0.247322  0.251463  1
  O  O60  1  0.140963  0.500000  0.607101  1
  O  O61  1  0.144549  0.000000  0.589764  1
  O  O62  1  0.134317  0.252551  0.586136  1
  O  O63  1  0.134317  0.747449  0.586136  1
  O  O64  1  0.095439  0.359904  0.187916  1
  O  O65  1  0.095439  0.640096  0.187916  1
  O  O66  1  0.089892  0.877273  0.202532  1
  O  O67  1  0.089892  0.122727  0.202532  1
