# generated using pymatgen
data_Mn3(OF2)2
_symmetry_space_group_name_H-M   'P 1'
_cell_length_a   5.73463885
_cell_length_b   5.80106024
_cell_length_c   7.28754739
_cell_angle_alpha   74.32385071
_cell_angle_beta   73.87790745
_cell_angle_gamma   73.98941115
_symmetry_Int_Tables_number   1
_chemical_formula_structural   Mn3(OF2)2
_chemical_formula_sum   'Mn6 O4 F8'
_cell_volume   218.89026951
_cell_formula_units_Z   2
loop_
 _symmetry_equiv_pos_site_id
 _symmetry_equiv_pos_as_xyz
  1  'x, y, z'
loop_
 _atom_site_type_symbol
 _atom_site_label
 _atom_site_symmetry_multiplicity
 _atom_site_fract_x
 _atom_site_fract_y
 _atom_site_fract_z
 _atom_site_occupancy
  Mn  Mn0  1  0.297774  0.331130  0.162399  1
  Mn  Mn1  1  0.686816  0.641100  0.328812  1
  Mn  Mn2  1  0.346832  0.352008  0.683784  1
  Mn  Mn3  1  0.674194  0.666817  0.833976  1
  Mn  Mn4  1  0.004530  0.019769  0.493849  1
  Mn  Mn5  1  0.989496  0.000791  0.999248  1
  O  O6  1  0.776838  0.758956  0.034983  1
  O  O7  1  0.210128  0.236428  0.966604  1
  O  O8  1  0.584388  0.563349  0.630519  1
  O  O9  1  0.971596  0.352016  0.329215  1
  F  F10  1  0.382358  0.942692  0.335568  1
  F  F11  1  0.031376  0.663654  0.659259  1
  F  F12  1  0.107499  0.121900  0.698768  1
  F  F13  1  0.415329  0.416251  0.372564  1
  F  F14  1  0.908673  0.897914  0.296512  1
  F  F15  1  0.638693  0.029569  0.668711  1
  F  F16  1  0.310368  0.703077  0.994293  1
  F  F17  1  0.663113  0.302580  0.010937  1
