# generated using pymatgen
data_LiCrP3H8O13
_symmetry_space_group_name_H-M   'P 1'
_cell_length_a   7.18480917
_cell_length_b   7.69271519
_cell_length_c   9.96535052
_cell_angle_alpha   82.72233703
_cell_angle_beta   74.42441246
_cell_angle_gamma   77.85605701
_symmetry_Int_Tables_number   1
_chemical_formula_structural   LiCrP3H8O13
_chemical_formula_sum   'Li2 Cr2 P6 H16 O26'
_cell_volume   517.24939276
_cell_formula_units_Z   2
loop_
 _symmetry_equiv_pos_site_id
 _symmetry_equiv_pos_as_xyz
  1  'x, y, z'
loop_
 _atom_site_type_symbol
 _atom_site_label
 _atom_site_symmetry_multiplicity
 _atom_site_fract_x
 _atom_site_fract_y
 _atom_site_fract_z
 _atom_site_occupancy
  Li  Li0  1  0.000000  0.000000  0.000000  1
  Li  Li1  1  0.000000  0.500000  0.500000  1
  Cr  Cr2  1  0.807309  0.818617  0.769503  1
  Cr  Cr3  1  0.192691  0.181383  0.230497  1
  P  P4  1  0.326292  0.805327  0.742373  1
  P  P5  1  0.241739  0.805816  0.475066  1
  P  P6  1  0.593115  0.459329  0.730944  1
  P  P7  1  0.406885  0.540671  0.269056  1
  P  P8  1  0.758261  0.194184  0.524934  1
  P  P9  1  0.673708  0.194673  0.257627  1
  H  H10  1  0.360317  0.980432  0.963515  1
  H  H11  1  0.819042  0.816863  0.430189  1
  H  H12  1  0.310797  0.861550  0.101365  1
  H  H13  1  0.920002  0.739445  0.204924  1
  H  H14  1  0.691307  0.694465  0.398086  1
  H  H15  1  0.857534  0.664667  0.008787  1
  H  H16  1  0.651315  0.628151  0.001362  1
  H  H17  1  0.099344  0.659730  0.085875  1
  H  H18  1  0.900656  0.340270  0.914125  1
  H  H19  1  0.348685  0.371849  0.998638  1
  H  H20  1  0.142466  0.335333  0.991213  1
  H  H21  1  0.308693  0.305535  0.601914  1
  H  H22  1  0.079998  0.260555  0.795076  1
  H  H23  1  0.689203  0.138450  0.898635  1
  H  H24  1  0.180958  0.183137  0.569811  1
  H  H25  1  0.639683  0.019568  0.036485  1
  O  O26  1  0.473548  0.877247  0.791197  1
  O  O27  1  0.270257  0.983341  0.057992  1
  O  O28  1  0.192858  0.965349  0.379081  1
  O  O29  1  0.360874  0.862562  0.574824  1
  O  O30  1  0.111967  0.854446  0.813280  1
  O  O31  1  0.974395  0.744810  0.101198  1
  O  O32  1  0.826367  0.714807  0.378573  1
  O  O33  1  0.787591  0.629757  0.943492  1
  O  O34  1  0.758356  0.560171  0.672162  1
  O  O35  1  0.083083  0.709880  0.559321  1
  O  O36  1  0.421774  0.661165  0.388890  1
  O  O37  1  0.380702  0.588917  0.746290  1
  O  O38  1  0.416524  0.653233  0.133518  1
  O  O39  1  0.583476  0.346767  0.866482  1
  O  O40  1  0.619298  0.411083  0.253710  1
  O  O41  1  0.578226  0.338835  0.611110  1
  O  O42  1  0.916917  0.290120  0.440679  1
  O  O43  1  0.241644  0.439829  0.327838  1
  O  O44  1  0.212409  0.370243  0.056508  1
  O  O45  1  0.173633  0.285193  0.621427  1
  O  O46  1  0.025605  0.255190  0.898802  1
  O  O47  1  0.888033  0.145554  0.186720  1
  O  O48  1  0.639126  0.137438  0.425176  1
  O  O49  1  0.807142  0.034651  0.620919  1
  O  O50  1  0.729743  0.016659  0.942008  1
  O  O51  1  0.526452  0.122753  0.208803  1
