# generated using pymatgen
data_K2MnS2
_symmetry_space_group_name_H-M   'P 1'
_cell_length_a   7.89991148
_cell_length_b   7.89991148
_cell_length_c   7.89991148
_cell_angle_alpha   132.97035320
_cell_angle_beta   127.93991517
_cell_angle_gamma   72.75521741
_symmetry_Int_Tables_number   1
_chemical_formula_structural   K2MnS2
_chemical_formula_sum   'K4 Mn2 S4'
_cell_volume   278.00772730
_cell_formula_units_Z   2
loop_
 _symmetry_equiv_pos_site_id
 _symmetry_equiv_pos_as_xyz
  1  'x, y, z'
loop_
 _atom_site_type_symbol
 _atom_site_label
 _atom_site_symmetry_multiplicity
 _atom_site_fract_x
 _atom_site_fract_y
 _atom_site_fract_z
 _atom_site_occupancy
  K  K0  1  0.193861  0.352844  0.841017  1
  K  K1  1  0.488173  0.147156  0.341017  1
  K  K2  1  0.806139  0.647156  0.158983  1
  K  K3  1  0.511827  0.852844  0.658983  1
  Mn  Mn4  1  0.000000  0.250000  0.250000  1
  Mn  Mn5  1  0.000000  0.750000  0.750000  1
  S  S6  1  0.705067  0.397822  0.307244  1
  S  S7  1  0.909422  0.102178  0.807244  1
  S  S8  1  0.294933  0.602178  0.692756  1
  S  S9  1  0.090578  0.897822  0.192756  1
