# generated using pymatgen
data_LiMnBO3
_symmetry_space_group_name_H-M   'P 1'
_cell_length_a   5.24481496
_cell_length_b   5.24481496
_cell_length_c   10.57313997
_cell_angle_alpha   88.98740711
_cell_angle_beta   91.01259289
_cell_angle_gamma   60.21230463
_symmetry_Int_Tables_number   1
_chemical_formula_structural   LiMnBO3
_chemical_formula_sum   'Li4 Mn4 B4 O12'
_cell_volume   252.26115507
_cell_formula_units_Z   4
loop_
 _symmetry_equiv_pos_site_id
 _symmetry_equiv_pos_as_xyz
  1  'x, y, z'
loop_
 _atom_site_type_symbol
 _atom_site_label
 _atom_site_symmetry_multiplicity
 _atom_site_fract_x
 _atom_site_fract_y
 _atom_site_fract_z
 _atom_site_occupancy
  Li  Li0  1  0.679384  0.349313  0.668521  1
  Li  Li1  1  0.650687  0.320616  0.168521  1
  Li  Li2  1  0.348857  0.662349  0.418310  1
  Li  Li3  1  0.337651  0.651143  0.918310  1
  Mn  Mn4  1  0.670160  0.996219  0.883581  1
  Mn  Mn5  1  0.322733  0.996256  0.133477  1
  Mn  Mn6  1  0.003744  0.677267  0.633477  1
  Mn  Mn7  1  0.003781  0.329840  0.383581  1
  B  B8  1  0.997382  0.657300  0.125509  1
  B  B9  1  0.665064  0.995978  0.375591  1
  B  B10  1  0.342700  0.002618  0.625509  1
  B  B11  1  0.004022  0.334936  0.875591  1
  O  O12  1  0.928746  0.754025  0.418769  1
  O  O13  1  0.746421  0.928636  0.095337  1
  O  O14  1  0.967471  0.420173  0.167976  1
  O  O15  1  0.421748  0.962794  0.344665  1
  O  O16  1  0.730017  0.359308  0.860318  1
  O  O17  1  0.640692  0.269983  0.360318  1
  O  O18  1  0.372402  0.727436  0.609848  1
  O  O19  1  0.272564  0.627598  0.109848  1
  O  O20  1  0.579827  0.032529  0.667976  1
  O  O21  1  0.037206  0.578252  0.844665  1
  O  O22  1  0.245975  0.071254  0.918769  1
  O  O23  1  0.071364  0.253579  0.595337  1
