# generated using pymatgen
data_Li2MnSiO4
_symmetry_space_group_name_H-M   'P 1'
_cell_length_a   5.05840860
_cell_length_b   5.49618054
_cell_length_c   8.11142784
_cell_angle_alpha   90.00000000
_cell_angle_beta   128.38999807
_cell_angle_gamma   90.00000000
_symmetry_Int_Tables_number   1
_chemical_formula_structural   Li2MnSiO4
_chemical_formula_sum   'Li4 Mn2 Si2 O8'
_cell_volume   176.75776661
_cell_formula_units_Z   2
loop_
 _symmetry_equiv_pos_site_id
 _symmetry_equiv_pos_as_xyz
  1  'x, y, z'
loop_
 _atom_site_type_symbol
 _atom_site_label
 _atom_site_symmetry_multiplicity
 _atom_site_fract_x
 _atom_site_fract_y
 _atom_site_fract_z
 _atom_site_occupancy
  Li  Li0  1  0.248605  0.183646  0.749483  1
  Li  Li1  1  0.500717  0.348298  0.501671  1
  Li  Li2  1  0.248605  0.816354  0.249483  1
  Li  Li3  1  0.500717  0.651702  0.001671  1
  Mn  Mn4  1  0.753011  0.832867  0.755464  1
  Mn  Mn5  1  0.753011  0.167133  0.255464  1
  Si  Si6  1  0.005494  0.329626  0.000869  1
  Si  Si7  1  0.005494  0.670374  0.500869  1
  O  O8  1  0.902047  0.612563  0.008097  1
  O  O9  1  0.677397  0.194708  0.785648  1
  O  O10  1  0.125621  0.820698  0.715586  1
  O  O11  1  0.325456  0.672403  0.494035  1
  O  O12  1  0.902047  0.387437  0.508097  1
  O  O13  1  0.677397  0.805292  0.285648  1
  O  O14  1  0.125621  0.179302  0.215586  1
  O  O15  1  0.325456  0.327597  0.994035  1
