# generated using pymatgen
data_Li2V3CrO8
_symmetry_space_group_name_H-M   'P 1'
_cell_length_a   5.97879671
_cell_length_b   5.97879671
_cell_length_c   5.97879671
_cell_angle_alpha   59.01417586
_cell_angle_beta   59.01417586
_cell_angle_gamma   59.01417586
_symmetry_Int_Tables_number   1
_chemical_formula_structural   Li2V3CrO8
_chemical_formula_sum   'Li2 V3 Cr1 O8'
_cell_volume   147.72353169
_cell_formula_units_Z   1
loop_
 _symmetry_equiv_pos_site_id
 _symmetry_equiv_pos_as_xyz
  1  'x, y, z'
loop_
 _atom_site_type_symbol
 _atom_site_label
 _atom_site_symmetry_multiplicity
 _atom_site_fract_x
 _atom_site_fract_y
 _atom_site_fract_z
 _atom_site_occupancy
  Li  Li0  1  0.875485  0.875485  0.875485  1
  Li  Li1  1  0.124515  0.124515  0.124515  1
  V  V2  1  0.500000  0.500000  1.000000  1
  V  V3  1  0.000000  0.500000  0.500000  1
  V  V4  1  0.500000  0.000000  0.500000  1
  Cr  Cr5  1  0.500000  0.500000  0.500000  1
  O  O6  1  0.738975  0.738975  0.738975  1
  O  O7  1  0.740678  0.284562  0.740678  1
  O  O8  1  0.284562  0.740678  0.740678  1
  O  O9  1  0.740678  0.740678  0.284562  1
  O  O10  1  0.259322  0.259322  0.715438  1
  O  O11  1  0.715438  0.259322  0.259322  1
  O  O12  1  0.259322  0.715438  0.259322  1
  O  O13  1  0.261025  0.261025  0.261025  1
