# generated using pymatgen
data_RbLiH12Se3N4
_symmetry_space_group_name_H-M   'P 1'
_cell_length_a   10.28099244
_cell_length_b   10.28099244
_cell_length_c   20.39810285
_cell_angle_alpha   69.09378380
_cell_angle_beta   110.90621620
_cell_angle_gamma   145.32030988
_symmetry_Int_Tables_number   1
_chemical_formula_structural   RbLiH12Se3N4
_chemical_formula_sum   'Rb4 Li4 H48 Se12 N16'
_cell_volume   1137.82619496
_cell_formula_units_Z   4
loop_
 _symmetry_equiv_pos_site_id
 _symmetry_equiv_pos_as_xyz
  1  'x, y, z'
loop_
 _atom_site_type_symbol
 _atom_site_label
 _atom_site_symmetry_multiplicity
 _atom_site_fract_x
 _atom_site_fract_y
 _atom_site_fract_z
 _atom_site_occupancy
  Rb  Rb0  1  0.201658  0.828829  0.262712  1
  Rb  Rb1  1  0.828829  0.201658  0.237288  1
  Rb  Rb2  1  0.798342  0.171171  0.737288  1
  Rb  Rb3  1  0.171171  0.798342  0.762712  1
  Li  Li4  1  0.803268  0.006918  0.549452  1
  Li  Li5  1  0.006918  0.803268  0.950548  1
  Li  Li6  1  0.196732  0.993082  0.450548  1
  Li  Li7  1  0.993082  0.196732  0.049452  1
  H  H8  1  0.161556  0.128632  0.165987  1
  H  H9  1  0.128632  0.161556  0.334013  1
  H  H10  1  0.838444  0.871368  0.834013  1
  H  H11  1  0.871368  0.838444  0.665987  1
  H  H12  1  0.936267  0.007898  0.188128  1
  H  H13  1  0.007898  0.936267  0.311872  1
  H  H14  1  0.063733  0.992102  0.811872  1
  H  H15  1  0.992102  0.063733  0.688128  1
  H  H16  1  0.916067  0.345414  0.573724  1
  H  H17  1  0.345414  0.916067  0.926276  1
  H  H18  1  0.083933  0.654586  0.426276  1
  H  H19  1  0.654586  0.083933  0.073724  1
  H  H20  1  0.755960  0.243978  0.497549  1
  H  H21  1  0.243978  0.755960  0.002451  1
  H  H22  1  0.244040  0.756022  0.502451  1
  H  H23  1  0.756022  0.244040  0.997549  1
  H  H24  1  0.400461  0.646967  0.065196  1
  H  H25  1  0.646967  0.400461  0.434804  1
  H  H26  1  0.599539  0.353033  0.934804  1
  H  H27  1  0.353033  0.599539  0.565196  1
  H  H28  1  0.636531  0.086735  0.571728  1
  H  H29  1  0.086735  0.636531  0.928272  1
  H  H30  1  0.363469  0.913265  0.428272  1
  H  H31  1  0.913265  0.363469  0.071728  1
  H  H32  1  0.807395  0.988213  0.423420  1
  H  H33  1  0.988213  0.807395  0.076580  1
  H  H34  1  0.192605  0.011787  0.576580  1
  H  H35  1  0.011787  0.192605  0.923420  1
  H  H36  1  0.897013  0.862825  0.148616  1
  H  H37  1  0.862825  0.897013  0.351384  1
  H  H38  1  0.102987  0.137175  0.851384  1
  H  H39  1  0.137175  0.102987  0.648616  1
  H  H40  1  0.073954  0.159406  0.457729  1
  H  H41  1  0.159406  0.073954  0.042271  1
  H  H42  1  0.926046  0.840594  0.542271  1
  H  H43  1  0.840594  0.926046  0.957729  1
  H  H44  1  0.465286  0.544893  0.064798  1
  H  H45  1  0.544893  0.465286  0.435202  1
  H  H46  1  0.534714  0.455107  0.935202  1
  H  H47  1  0.455107  0.534714  0.564798  1
  H  H48  1  0.995255  0.258642  0.425063  1
  H  H49  1  0.258642  0.995255  0.074937  1
  H  H50  1  0.004745  0.741358  0.574937  1
  H  H51  1  0.741358  0.004745  0.925063  1
  H  H52  1  0.402898  0.626335  0.989780  1
  H  H53  1  0.626335  0.402898  0.510220  1
  H  H54  1  0.597102  0.373665  0.010220  1
  H  H55  1  0.373665  0.597102  0.489780  1
  Se  Se56  1  0.612665  0.419157  0.271699  1
  Se  Se57  1  0.419157  0.612665  0.228301  1
  Se  Se58  1  0.387335  0.580843  0.728301  1
  Se  Se59  1  0.580843  0.387335  0.771699  1
  Se  Se60  1  0.730793  0.291228  0.356889  1
  Se  Se61  1  0.291228  0.730793  0.143111  1
  Se  Se62  1  0.269207  0.708772  0.643111  1
  Se  Se63  1  0.708772  0.269207  0.856889  1
  Se  Se64  1  0.635791  0.422788  0.158619  1
  Se  Se65  1  0.422788  0.635791  0.341381  1
  Se  Se66  1  0.364209  0.577212  0.841381  1
  Se  Se67  1  0.577212  0.364209  0.658619  1
  N  N68  1  0.992737  0.025463  0.149315  1
  N  N69  1  0.025463  0.992737  0.350685  1
  N  N70  1  0.007263  0.974537  0.850685  1
  N  N71  1  0.974537  0.007263  0.649315  1
  N  N72  1  0.781991  0.197318  0.549150  1
  N  N73  1  0.197318  0.781991  0.950850  1
  N  N74  1  0.218009  0.802682  0.450850  1
  N  N75  1  0.802682  0.218009  0.049150  1
  N  N76  1  0.941638  0.118694  0.455337  1
  N  N77  1  0.118694  0.941638  0.044663  1
  N  N78  1  0.058362  0.881306  0.544663  1
  N  N79  1  0.881306  0.058362  0.955337  1
  N  N80  1  0.356927  0.542793  0.039757  1
  N  N81  1  0.542793  0.356927  0.460243  1
  N  N82  1  0.643073  0.457207  0.960243  1
  N  N83  1  0.457207  0.643073  0.539757  1
