# generated using pymatgen
data_Li7TiCr3(PO4)6
_symmetry_space_group_name_H-M   'P 1'
_cell_length_a   8.81259594
_cell_length_b   8.81259594
_cell_length_c   8.81259594
_cell_angle_alpha   60.45690436
_cell_angle_beta   60.45690436
_cell_angle_gamma   60.45690436
_symmetry_Int_Tables_number   1
_chemical_formula_structural   Li7TiCr3(PO4)6
_chemical_formula_sum   'Li7 Ti1 Cr3 P6 O24'
_cell_volume   488.94425599
_cell_formula_units_Z   1
loop_
 _symmetry_equiv_pos_site_id
 _symmetry_equiv_pos_as_xyz
  1  'x, y, z'
loop_
 _atom_site_type_symbol
 _atom_site_label
 _atom_site_symmetry_multiplicity
 _atom_site_fract_x
 _atom_site_fract_y
 _atom_site_fract_z
 _atom_site_occupancy
  Li  Li0  1  0.798473  0.628752  0.248340  1
  Li  Li1  1  0.628752  0.248340  0.798473  1
  Li  Li2  1  0.248340  0.798473  0.628752  1
  Li  Li3  1  0.474575  0.474575  0.474575  1
  Li  Li4  1  0.800791  0.059086  0.235979  1
  Li  Li5  1  0.235979  0.800791  0.059086  1
  Li  Li6  1  0.059086  0.235979  0.800791  1
  Ti  Ti7  1  0.143649  0.143649  0.143649  1
  Cr  Cr8  1  0.854295  0.854295  0.854295  1
  Cr  Cr9  1  0.352669  0.352669  0.352669  1
  Cr  Cr10  1  0.644487  0.644487  0.644487  1
  P  P11  1  0.954368  0.253815  0.537865  1
  P  P12  1  0.537865  0.954368  0.253815  1
  P  P13  1  0.253815  0.537865  0.954368  1
  P  P14  1  0.748244  0.455986  0.045436  1
  P  P15  1  0.455986  0.045436  0.748244  1
  P  P16  1  0.045436  0.748244  0.455986  1
  O  O17  1  0.911723  0.102340  0.728666  1
  O  O18  1  0.000469  0.204287  0.372968  1
  O  O19  1  0.772633  0.425183  0.539886  1
  O  O20  1  0.527733  0.114132  0.290194  1
  O  O21  1  0.728666  0.911723  0.102340  1
  O  O22  1  0.539886  0.772633  0.425183  1
  O  O23  1  0.290194  0.527733  0.114132  1
  O  O24  1  0.425183  0.539886  0.772633  1
  O  O25  1  0.800237  0.609120  0.027095  1
  O  O26  1  0.913098  0.265541  0.062704  1
  O  O27  1  0.114132  0.290194  0.527733  1
  O  O28  1  0.609120  0.027095  0.800237  1
  O  O29  1  0.372968  0.000469  0.204287  1
  O  O30  1  0.874253  0.715819  0.488116  1
  O  O31  1  0.102340  0.728666  0.911723  1
  O  O32  1  0.204287  0.372968  0.000469  1
  O  O33  1  0.585880  0.430429  0.228487  1
  O  O34  1  0.715819  0.488116  0.874253  1
  O  O35  1  0.430429  0.228487  0.585880  1
  O  O36  1  0.265541  0.062704  0.913098  1
  O  O37  1  0.488116  0.874253  0.715819  1
  O  O38  1  0.027095  0.800237  0.609120  1
  O  O39  1  0.228487  0.585880  0.430429  1
  O  O40  1  0.062704  0.913098  0.265541  1
