# generated using pymatgen
data_Li7Co(O2F)2
_symmetry_space_group_name_H-M   'P 1'
_cell_length_a   5.34668410
_cell_length_b   5.71678982
_cell_length_c   10.24509327
_cell_angle_alpha   105.47730576
_cell_angle_beta   86.06915442
_cell_angle_gamma   114.78460218
_symmetry_Int_Tables_number   1
_chemical_formula_structural   Li7Co(O2F)2
_chemical_formula_sum   'Li14 Co2 O8 F4'
_cell_volume   273.65999771
_cell_formula_units_Z   2
loop_
 _symmetry_equiv_pos_site_id
 _symmetry_equiv_pos_as_xyz
  1  'x, y, z'
loop_
 _atom_site_type_symbol
 _atom_site_label
 _atom_site_symmetry_multiplicity
 _atom_site_fract_x
 _atom_site_fract_y
 _atom_site_fract_z
 _atom_site_occupancy
  Li  Li0  1  0.053375  0.966845  0.768256  1
  Li  Li1  1  0.470530  0.367332  0.258215  1
  Li  Li2  1  0.535621  0.056496  0.611937  1
  Li  Li3  1  0.967612  0.418163  0.878090  1
  Li  Li4  1  0.042848  0.776805  0.556784  1
  Li  Li5  1  0.516651  0.288187  0.042601  1
  Li  Li6  1  0.948624  0.642596  0.322056  1
  Li  Li7  1  0.486291  0.764063  0.937135  1
  Li  Li8  1  0.972129  0.218841  0.469124  1
  Li  Li9  1  0.982951  0.503456  0.103233  1
  Li  Li10  1  0.490232  0.965868  0.386240  1
  Li  Li11  1  0.486165  0.563148  0.721978  1
  Li  Li12  1  0.990849  0.093690  0.254334  1
  Li  Li13  1  0.520713  0.848995  0.172137  1
  Co  Co14  1  0.005236  0.949925  0.051626  1
  Co  Co15  1  0.505550  0.503751  0.492217  1
  O  O16  1  0.256104  0.181870  0.595841  1
  O  O17  1  0.282491  0.024631  0.204768  1
  O  O18  1  0.164215  0.819709  0.963633  1
  O  O19  1  0.664682  0.315722  0.434646  1
  O  O20  1  0.690251  0.623877  0.118091  1
  O  O21  1  0.345474  0.694083  0.540582  1
  O  O22  1  0.827427  0.170989  0.055803  1
  O  O23  1  0.774443  0.832698  0.393109  1
  F  F24  1  0.863829  0.608273  0.721282  1
  F  F25  1  0.320659  0.415609  0.888254  1
  F  F26  1  0.146520  0.436464  0.277208  1
  F  F27  1  0.688530  0.947914  0.780822  1
