# generated using pymatgen
data_Li5Fe7O3F13
_symmetry_space_group_name_H-M   'P 1'
_cell_length_a   6.20394615
_cell_length_b   6.21648670
_cell_length_c   10.70332825
_cell_angle_alpha   73.40804052
_cell_angle_beta   73.46011430
_cell_angle_gamma   60.05928957
_symmetry_Int_Tables_number   1
_chemical_formula_structural   Li5Fe7O3F13
_chemical_formula_sum   'Li5 Fe7 O3 F13'
_cell_volume   337.74829943
_cell_formula_units_Z   1
loop_
 _symmetry_equiv_pos_site_id
 _symmetry_equiv_pos_as_xyz
  1  'x, y, z'
loop_
 _atom_site_type_symbol
 _atom_site_label
 _atom_site_symmetry_multiplicity
 _atom_site_fract_x
 _atom_site_fract_y
 _atom_site_fract_z
 _atom_site_occupancy
  Li  Li0  1  0.518668  0.249026  0.249663  1
  Li  Li1  1  0.106502  0.808049  0.567172  1
  Li  Li2  1  0.889601  0.192713  0.437420  1
  Li  Li3  1  0.994692  0.243132  0.745984  1
  Li  Li4  1  0.869031  0.679754  0.936111  1
  Fe  Fe5  1  0.080040  0.318538  0.077639  1
  Fe  Fe6  1  0.504715  0.998381  0.006204  1
  Fe  Fe7  1  0.014993  0.747579  0.247332  1
  Fe  Fe8  1  0.502706  0.758728  0.243302  1
  Fe  Fe9  1  0.514602  0.500392  0.503742  1
  Fe  Fe10  1  0.507914  0.742371  0.743089  1
  Fe  Fe11  1  0.517525  0.267412  0.740451  1
  O  O12  1  0.249074  0.645325  0.130198  1
  O  O13  1  0.703366  0.099710  0.132605  1
  O  O14  1  0.717676  0.601497  0.627512  1
  F  F15  1  0.254428  0.890098  0.372798  1
  F  F16  1  0.248477  0.123026  0.129369  1
  F  F17  1  0.751080  0.379507  0.371768  1
  F  F18  1  0.747389  0.619411  0.132971  1
  F  F19  1  0.766774  0.865934  0.365667  1
  F  F20  1  0.296719  0.408778  0.374963  1
  F  F21  1  0.239998  0.134312  0.631011  1
  F  F22  1  0.238018  0.364585  0.865361  1
  F  F23  1  0.245648  0.610726  0.635383  1
  F  F24  1  0.742372  0.879869  0.863817  1
  F  F25  1  0.746040  0.115589  0.632115  1
  F  F26  1  0.286076  0.902223  0.865903  1
  F  F27  1  0.745878  0.353335  0.870448  1
