# generated using pymatgen
data_V6O5F19
_symmetry_space_group_name_H-M   'P 1'
_cell_length_a   5.37689433
_cell_length_b   5.61174548
_cell_length_c   14.80702398
_cell_angle_alpha   100.36633385
_cell_angle_beta   89.63201717
_cell_angle_gamma   93.10652259
_symmetry_Int_Tables_number   1
_chemical_formula_structural   V6O5F19
_chemical_formula_sum   'V6 O5 F19'
_cell_volume   438.84259136
_cell_formula_units_Z   1
loop_
 _symmetry_equiv_pos_site_id
 _symmetry_equiv_pos_as_xyz
  1  'x, y, z'
loop_
 _atom_site_type_symbol
 _atom_site_label
 _atom_site_symmetry_multiplicity
 _atom_site_fract_x
 _atom_site_fract_y
 _atom_site_fract_z
 _atom_site_occupancy
  V  V0  1  0.034697  0.955492  0.996243  1
  V  V1  1  0.512095  0.818771  0.668256  1
  V  V2  1  0.968806  0.734063  0.336815  1
  V  V3  1  0.542965  0.466606  0.003722  1
  V  V4  1  0.038713  0.277367  0.662614  1
  V  V5  1  0.516245  0.224362  0.334757  1
  O  O6  1  0.794489  0.969719  0.358497  1
  O  O7  1  0.706460  0.469390  0.356446  1
  O  O8  1  0.770204  0.303483  0.021095  1
  O  O9  1  0.205984  0.724226  0.978523  1
  O  O10  1  0.207967  0.039461  0.642533  1
  F  F11  1  0.725129  0.785155  0.026323  1
  F  F12  1  0.271733  0.862844  0.308544  1
  F  F13  1  0.904201  0.961113  0.886994  1
  F  F14  1  0.562986  0.800568  0.549124  1
  F  F15  1  0.911804  0.604774  0.220333  1
  F  F16  1  0.397246  0.889748  0.781570  1
  F  F17  1  0.074329  0.688718  0.445331  1
  F  F18  1  0.406012  0.546012  0.113424  1
  F  F19  1  0.780566  0.655040  0.692325  1
  F  F20  1  0.296469  0.517205  0.643184  1
  F  F21  1  0.234032  0.349559  0.307014  1
  F  F22  1  0.560245  0.476749  0.884950  1
  F  F23  1  0.912584  0.304123  0.555339  1
  F  F24  1  0.588792  0.095421  0.220522  1
  F  F25  1  0.070327  0.392543  0.780765  1
  F  F26  1  0.425069  0.184192  0.446289  1
  F  F27  1  0.069748  0.072040  0.114947  1
  F  F28  1  0.725291  0.126219  0.690098  1
  F  F29  1  0.284810  0.205039  0.973421  1
