# generated using pymatgen
data_Hg3(AsO4)2
_symmetry_space_group_name_H-M   'P 1'
_cell_length_a   6.67688442
_cell_length_b   12.03452952
_cell_length_c   10.37951419
_cell_angle_alpha   90.00000000
_cell_angle_beta   99.34029864
_cell_angle_gamma   90.00000000
_symmetry_Int_Tables_number   1
_chemical_formula_structural   Hg3(AsO4)2
_chemical_formula_sum   'Hg12 As8 O32'
_cell_volume   822.96910589
_cell_formula_units_Z   4
loop_
 _symmetry_equiv_pos_site_id
 _symmetry_equiv_pos_as_xyz
  1  'x, y, z'
loop_
 _atom_site_type_symbol
 _atom_site_label
 _atom_site_symmetry_multiplicity
 _atom_site_fract_x
 _atom_site_fract_y
 _atom_site_fract_z
 _atom_site_occupancy
  Hg  Hg0  1  0.089165  0.171149  0.341982  1
  Hg  Hg1  1  0.410835  0.671149  0.658018  1
  Hg  Hg2  1  0.910835  0.828851  0.658018  1
  Hg  Hg3  1  0.589165  0.328851  0.341982  1
  Hg  Hg4  1  0.675821  0.897934  0.299040  1
  Hg  Hg5  1  0.824179  0.397934  0.700960  1
  Hg  Hg6  1  0.324179  0.102066  0.700960  1
  Hg  Hg7  1  0.175821  0.602066  0.299040  1
  Hg  Hg8  1  0.830246  0.118982  0.954434  1
  Hg  Hg9  1  0.669754  0.618982  0.045566  1
  Hg  Hg10  1  0.169754  0.881018  0.045566  1
  Hg  Hg11  1  0.330246  0.381018  0.954434  1
  As  As12  1  0.906090  0.366956  0.098125  1
  As  As13  1  0.593910  0.866956  0.901875  1
  As  As14  1  0.093910  0.633044  0.901875  1
  As  As15  1  0.406090  0.133044  0.098125  1
  As  As16  1  0.198735  0.905220  0.393976  1
  As  As17  1  0.301265  0.405220  0.606024  1
  As  As18  1  0.801265  0.094780  0.606024  1
  As  As19  1  0.698735  0.594780  0.393976  1
  O  O20  1  0.119504  0.445606  0.129508  1
  O  O21  1  0.380496  0.945606  0.870492  1
  O  O22  1  0.880496  0.554394  0.870492  1
  O  O23  1  0.619504  0.054394  0.129508  1
  O  O24  1  0.680801  0.442136  0.085977  1
  O  O25  1  0.819199  0.942136  0.914023  1
  O  O26  1  0.319199  0.557864  0.914023  1
  O  O27  1  0.180801  0.057864  0.085977  1
  O  O28  1  0.869464  0.273179  0.220356  1
  O  O29  1  0.630536  0.773179  0.779644  1
  O  O30  1  0.130536  0.726821  0.779644  1
  O  O31  1  0.369464  0.226821  0.220356  1
  O  O32  1  0.915312  0.291024  0.955564  1
  O  O33  1  0.584688  0.791024  0.044436  1
  O  O34  1  0.084688  0.708976  0.044436  1
  O  O35  1  0.415312  0.208976  0.955564  1
  O  O36  1  0.181850  0.813677  0.516170  1
  O  O37  1  0.318150  0.313677  0.483830  1
  O  O38  1  0.818150  0.186323  0.483830  1
  O  O39  1  0.681850  0.686323  0.516170  1
  O  O40  1  0.761411  0.461306  0.452807  1
  O  O41  1  0.738589  0.961306  0.547193  1
  O  O42  1  0.238589  0.538694  0.547193  1
  O  O43  1  0.261411  0.038694  0.452807  1
  O  O44  1  0.480783  0.582690  0.276738  1
  O  O45  1  0.019217  0.082690  0.723262  1
  O  O46  1  0.519217  0.417310  0.723262  1
  O  O47  1  0.980783  0.917310  0.276738  1
  O  O48  1  0.867210  0.643093  0.293655  1
  O  O49  1  0.632790  0.143093  0.706345  1
  O  O50  1  0.132790  0.356907  0.706345  1
  O  O51  1  0.367210  0.856907  0.293655  1
