# generated using pymatgen
data_Yb4Br6O
_symmetry_space_group_name_H-M   'P 1'
_cell_length_a   9.46799436
_cell_length_b   9.46799436
_cell_length_c   7.18668924
_cell_angle_alpha   90.00000000
_cell_angle_beta   90.00000000
_cell_angle_gamma   120.00000000
_symmetry_Int_Tables_number   1
_chemical_formula_structural   Yb4Br6O
_chemical_formula_sum   'Yb8 Br12 O2'
_cell_volume   557.92455907
_cell_formula_units_Z   2
loop_
 _symmetry_equiv_pos_site_id
 _symmetry_equiv_pos_as_xyz
  1  'x, y, z'
loop_
 _atom_site_type_symbol
 _atom_site_label
 _atom_site_symmetry_multiplicity
 _atom_site_fract_x
 _atom_site_fract_y
 _atom_site_fract_z
 _atom_site_occupancy
  Yb  Yb0  1  0.203565  0.796435  0.002857  1
  Yb  Yb1  1  0.333333  0.666667  0.409930  1
  Yb  Yb2  1  0.203565  0.407129  0.002857  1
  Yb  Yb3  1  0.592871  0.796435  0.002857  1
  Yb  Yb4  1  0.407129  0.203565  0.502857  1
  Yb  Yb5  1  0.666667  0.333333  0.909930  1
  Yb  Yb6  1  0.796435  0.592871  0.502857  1
  Yb  Yb7  1  0.796435  0.203565  0.502857  1
  Br  Br8  1  0.137870  0.862130  0.384348  1
  Br  Br9  1  0.070645  0.535322  0.705707  1
  Br  Br10  1  0.137870  0.275739  0.384348  1
  Br  Br11  1  0.464678  0.929355  0.705707  1
  Br  Br12  1  0.464678  0.535322  0.705707  1
  Br  Br13  1  0.275739  0.137870  0.884348  1
  Br  Br14  1  0.724261  0.862130  0.384348  1
  Br  Br15  1  0.535322  0.464678  0.205707  1
  Br  Br16  1  0.862130  0.724261  0.884348  1
  Br  Br17  1  0.535322  0.070645  0.205707  1
  Br  Br18  1  0.929355  0.464678  0.205707  1
  Br  Br19  1  0.862130  0.137870  0.884348  1
  O  O20  1  0.333333  0.666667  0.100648  1
  O  O21  1  0.666667  0.333333  0.600648  1
