# generated using pymatgen
data_Co6O5F7
_symmetry_space_group_name_H-M   'P 1'
_cell_length_a   4.61128923
_cell_length_b   5.55733381
_cell_length_c   7.69757360
_cell_angle_alpha   92.47378463
_cell_angle_beta   92.27037662
_cell_angle_gamma   90.11764639
_symmetry_Int_Tables_number   1
_chemical_formula_structural   Co6O5F7
_chemical_formula_sum   'Co6 O5 F7'
_cell_volume   196.92172974
_cell_formula_units_Z   1
loop_
 _symmetry_equiv_pos_site_id
 _symmetry_equiv_pos_as_xyz
  1  'x, y, z'
loop_
 _atom_site_type_symbol
 _atom_site_label
 _atom_site_symmetry_multiplicity
 _atom_site_fract_x
 _atom_site_fract_y
 _atom_site_fract_z
 _atom_site_occupancy
  Co  Co0  1  0.478143  0.499575  0.002914  1
  Co  Co1  1  0.542769  0.821069  0.354646  1
  Co  Co2  1  0.468421  0.159278  0.670368  1
  Co  Co3  1  0.015015  0.662084  0.676262  1
  Co  Co4  1  0.986864  0.352292  0.306662  1
  Co  Co5  1  0.035346  0.016857  0.988062  1
  O  O6  1  0.190751  0.946370  0.767622  1
  O  O7  1  0.200421  0.307900  0.093956  1
  O  O8  1  0.292858  0.465785  0.775004  1
  O  O9  1  0.707172  0.860309  0.566881  1
  O  O10  1  0.686635  0.529157  0.226663  1
  F  F11  1  0.198786  0.629541  0.428830  1
  F  F12  1  0.302681  0.812807  0.120809  1
  F  F13  1  0.293804  0.137539  0.422739  1
  F  F14  1  0.698570  0.195964  0.896849  1
  F  F15  1  0.808494  0.034761  0.226347  1
  F  F16  1  0.783560  0.697496  0.911625  1
  F  F17  1  0.809709  0.371217  0.563759  1
