# generated using pymatgen
data_ZrCoP
_symmetry_space_group_name_H-M   'P 1'
_cell_length_a   3.70124190
_cell_length_b   6.34964647
_cell_length_c   7.17578095
_cell_angle_alpha   90.00000000
_cell_angle_beta   90.00000000
_cell_angle_gamma   90.00000000
_symmetry_Int_Tables_number   1
_chemical_formula_structural   ZrCoP
_chemical_formula_sum   'Zr4 Co4 P4'
_cell_volume   168.64217259
_cell_formula_units_Z   4
loop_
 _symmetry_equiv_pos_site_id
 _symmetry_equiv_pos_as_xyz
  1  'x, y, z'
loop_
 _atom_site_type_symbol
 _atom_site_label
 _atom_site_symmetry_multiplicity
 _atom_site_fract_x
 _atom_site_fract_y
 _atom_site_fract_z
 _atom_site_occupancy
  Zr  Zr0  1  0.250000  0.519140  0.683084  1
  Zr  Zr1  1  0.250000  0.019140  0.816916  1
  Zr  Zr2  1  0.750000  0.980860  0.183084  1
  Zr  Zr3  1  0.750000  0.480860  0.316916  1
  Co  Co4  1  0.750000  0.361810  0.939403  1
  Co  Co5  1  0.250000  0.138190  0.439403  1
  Co  Co6  1  0.750000  0.861810  0.560597  1
  Co  Co7  1  0.250000  0.638190  0.060597  1
  P  P8  1  0.250000  0.775538  0.387122  1
  P  P9  1  0.250000  0.275538  0.112878  1
  P  P10  1  0.750000  0.224462  0.612878  1
  P  P11  1  0.750000  0.724462  0.887122  1
