# generated using pymatgen
data_Co3Ni3(TeO8)2
_symmetry_space_group_name_H-M   'P 1'
_cell_length_a   5.83472559
_cell_length_b   5.83472559
_cell_length_c   9.13350647
_cell_angle_alpha   87.42568615
_cell_angle_beta   92.57431385
_cell_angle_gamma   121.28287053
_symmetry_Int_Tables_number   1
_chemical_formula_structural   Co3Ni3(TeO8)2
_chemical_formula_sum   'Co3 Ni3 Te2 O16'
_cell_volume   265.38173075
_cell_formula_units_Z   1
loop_
 _symmetry_equiv_pos_site_id
 _symmetry_equiv_pos_as_xyz
  1  'x, y, z'
loop_
 _atom_site_type_symbol
 _atom_site_label
 _atom_site_symmetry_multiplicity
 _atom_site_fract_x
 _atom_site_fract_y
 _atom_site_fract_z
 _atom_site_occupancy
  Co  Co0  1  0.343334  0.164026  0.215117  1
  Co  Co1  1  0.835974  0.656666  0.215117  1
  Co  Co2  1  0.170608  0.829392  0.718299  1
  Ni  Ni3  1  0.833454  0.166546  0.209470  1
  Ni  Ni4  1  0.168196  0.334290  0.711267  1
  Ni  Ni5  1  0.665710  0.831804  0.711267  1
  Te  Te6  1  0.668356  0.331644  0.491242  1
  Te  Te7  1  0.333825  0.666175  0.991252  1
  O  O8  1  0.338041  0.161480  0.594779  1
  O  O9  1  0.519220  0.480780  0.333437  1
  O  O10  1  0.649868  0.350132  0.109286  1
  O  O11  1  0.015229  0.984771  0.302265  1
  O  O12  1  0.009897  0.990103  0.802049  1
  O  O13  1  0.838520  0.661959  0.594779  1
  O  O14  1  0.500052  0.034586  0.345373  1
  O  O15  1  0.965414  0.499948  0.345373  1
  O  O16  1  0.166898  0.833102  0.100248  1
  O  O17  1  0.841166  0.158834  0.589862  1
  O  O18  1  0.026826  0.532037  0.846128  1
  O  O19  1  0.467963  0.973174  0.846128  1
  O  O20  1  0.324677  0.675323  0.618675  1
  O  O21  1  0.168815  0.324504  0.091413  1
  O  O22  1  0.478062  0.521938  0.841720  1
  O  O23  1  0.675496  0.831185  0.091413  1
