# generated using pymatgen
data_Rb2NbF6
_symmetry_space_group_name_H-M   'P 1'
_cell_length_a   6.29812441
_cell_length_b   6.29812441
_cell_length_c   4.76619470
_cell_angle_alpha   90.00000000
_cell_angle_beta   90.00000000
_cell_angle_gamma   120.00000000
_symmetry_Int_Tables_number   1
_chemical_formula_structural   Rb2NbF6
_chemical_formula_sum   'Rb2 Nb1 F6'
_cell_volume   163.72872580
_cell_formula_units_Z   1
loop_
 _symmetry_equiv_pos_site_id
 _symmetry_equiv_pos_as_xyz
  1  'x, y, z'
loop_
 _atom_site_type_symbol
 _atom_site_label
 _atom_site_symmetry_multiplicity
 _atom_site_fract_x
 _atom_site_fract_y
 _atom_site_fract_z
 _atom_site_occupancy
  Rb  Rb0  1  0.333333  0.666667  0.698792  1
  Rb  Rb1  1  0.666667  0.333333  0.301208  1
  Nb  Nb2  1  0.000000  0.000000  0.000000  1
  F  F3  1  0.840939  0.159061  0.783061  1
  F  F4  1  0.840939  0.681878  0.783061  1
  F  F5  1  0.318122  0.159061  0.783061  1
  F  F6  1  0.159061  0.840939  0.216939  1
  F  F7  1  0.159061  0.318122  0.216939  1
  F  F8  1  0.681878  0.840939  0.216939  1
