# generated using pymatgen
data_Tl3Os3O10
_symmetry_space_group_name_H-M   'P 1'
_cell_length_a   16.53084252
_cell_length_b   16.53084252
_cell_length_c   16.53084252
_cell_angle_alpha   154.17736345
_cell_angle_beta   154.17736345
_cell_angle_gamma   36.84186150
_symmetry_Int_Tables_number   1
_chemical_formula_structural   Tl3Os3O10
_chemical_formula_sum   'Tl12 Os12 O40'
_cell_volume   855.92128971
_cell_formula_units_Z   4
loop_
 _symmetry_equiv_pos_site_id
 _symmetry_equiv_pos_as_xyz
  1  'x, y, z'
loop_
 _atom_site_type_symbol
 _atom_site_label
 _atom_site_symmetry_multiplicity
 _atom_site_fract_x
 _atom_site_fract_y
 _atom_site_fract_z
 _atom_site_occupancy
  Tl  Tl0  1  0.039752  0.278400  0.238648  1
  Tl  Tl1  1  0.039752  0.801103  0.761352  1
  Tl  Tl2  1  0.375000  0.625000  0.750000  1
  Tl  Tl3  1  0.875000  0.625000  0.250000  1
  Tl  Tl4  1  0.710248  0.448897  0.738648  1
  Tl  Tl5  1  0.710248  0.971600  0.261352  1
  Tl  Tl6  1  0.551103  0.289752  0.261352  1
  Tl  Tl7  1  0.028400  0.289752  0.738648  1
  Tl  Tl8  1  0.375000  0.125000  0.750000  1
  Tl  Tl9  1  0.375000  0.625000  0.250000  1
  Tl  Tl10  1  0.198897  0.960248  0.238648  1
  Tl  Tl11  1  0.721600  0.960248  0.761352  1
  Os  Os12  1  0.541756  0.791261  0.249504  1
  Os  Os13  1  0.541756  0.292252  0.750496  1
  Os  Os14  1  0.375000  0.125000  0.250000  1
  Os  Os15  1  0.875000  0.125000  0.750000  1
  Os  Os16  1  0.208244  0.458739  0.250496  1
  Os  Os17  1  0.208244  0.957748  0.749504  1
  Os  Os18  1  0.042252  0.791756  0.250496  1
  Os  Os19  1  0.541261  0.791756  0.749504  1
  Os  Os20  1  0.875000  0.125000  0.250000  1
  Os  Os21  1  0.875000  0.625000  0.750000  1
  Os  Os22  1  0.208739  0.458244  0.750496  1
  Os  Os23  1  0.707748  0.458244  0.249504  1
  O  O24  1  0.566810  0.566810  0.000000  1
  O  O25  1  0.776200  0.278469  0.887683  1
  O  O26  1  0.390786  0.278469  0.502269  1
  O  O27  1  0.390786  0.888517  0.112317  1
  O  O28  1  0.776200  0.888517  0.497731  1
  O  O29  1  0.086027  0.586027  0.500000  1
  O  O30  1  0.106112  0.106112  0.000000  1
  O  O31  1  0.643888  0.143888  0.500000  1
  O  O32  1  0.663973  0.663973  0.000000  1
  O  O33  1  0.973800  0.971531  0.612317  1
  O  O34  1  0.359214  0.971531  0.997731  1
  O  O35  1  0.973800  0.361483  0.002269  1
  O  O36  1  0.359214  0.361483  0.387683  1
  O  O37  1  0.183190  0.683190  0.500000  1
  O  O38  1  0.227670  0.227670  0.000000  1
  O  O39  1  0.066628  0.933372  0.500000  1
  O  O40  1  0.433372  0.933372  0.866743  1
  O  O41  1  0.433372  0.566628  0.500000  1
  O  O42  1  0.066628  0.566628  0.133257  1
  O  O43  1  0.772330  0.772330  0.000000  1
  O  O44  1  0.316810  0.816810  0.500000  1
  O  O45  1  0.638517  0.640786  0.612317  1
  O  O46  1  0.028469  0.026200  0.387683  1
  O  O47  1  0.336027  0.336027  0.000000  1
  O  O48  1  0.028469  0.640786  0.002269  1
  O  O49  1  0.638517  0.026200  0.997731  1
  O  O50  1  0.856112  0.356112  0.500000  1
  O  O51  1  0.893888  0.893888  0.000000  1
  O  O52  1  0.413973  0.913973  0.500000  1
  O  O53  1  0.111483  0.609214  0.887683  1
  O  O54  1  0.721531  0.609214  0.497731  1
  O  O55  1  0.111483  0.223800  0.502269  1
  O  O56  1  0.721531  0.223800  0.112317  1
  O  O57  1  0.433190  0.433190  0.000000  1
  O  O58  1  0.977670  0.477670  0.500000  1
  O  O59  1  0.316628  0.683372  0.000000  1
  O  O60  1  0.683372  0.316628  1.000000  1
  O  O61  1  0.683372  0.683372  0.366743  1
  O  O62  1  0.316628  0.316628  0.633257  1
  O  O63  1  0.522330  0.022330  0.500000  1
