# generated using pymatgen
data_Mn12O7F17
_symmetry_space_group_name_H-M   'P 1'
_cell_length_a   4.72988563
_cell_length_b   5.79678769
_cell_length_c   16.02109153
_cell_angle_alpha   89.36405609
_cell_angle_beta   89.63059237
_cell_angle_gamma   87.62228515
_symmetry_Int_Tables_number   1
_chemical_formula_structural   Mn12O7F17
_chemical_formula_sum   'Mn12 O7 F17'
_cell_volume   438.85546957
_cell_formula_units_Z   1
loop_
 _symmetry_equiv_pos_site_id
 _symmetry_equiv_pos_as_xyz
  1  'x, y, z'
loop_
 _atom_site_type_symbol
 _atom_site_label
 _atom_site_symmetry_multiplicity
 _atom_site_fract_x
 _atom_site_fract_y
 _atom_site_fract_z
 _atom_site_occupancy
  Mn  Mn0  1  0.999268  0.152395  0.415730  1
  Mn  Mn1  1  0.026883  0.837400  0.239669  1
  Mn  Mn2  1  0.003913  0.860098  0.916169  1
  Mn  Mn3  1  0.016172  0.154934  0.076898  1
  Mn  Mn4  1  0.031951  0.853976  0.577409  1
  Mn  Mn5  1  0.007922  0.165440  0.738956  1
  Mn  Mn6  1  0.493527  0.330308  0.592809  1
  Mn  Mn7  1  0.498133  0.326318  0.929218  1
  Mn  Mn8  1  0.533939  0.337771  0.260123  1
  Mn  Mn9  1  0.491150  0.649888  0.083384  1
  Mn  Mn10  1  0.508480  0.656612  0.419905  1
  Mn  Mn11  1  0.525273  0.641997  0.750686  1
  O  O12  1  0.222548  0.118806  0.636982  1
  O  O13  1  0.209858  0.119541  0.970521  1
  O  O14  1  0.234164  0.887698  0.128403  1
  O  O15  1  0.223267  0.887730  0.465107  1
  O  O16  1  0.710720  0.382925  0.032524  1
  O  O17  1  0.735689  0.389095  0.371710  1
  O  O18  1  0.717684  0.367629  0.693125  1
  F  F19  1  0.216949  0.121322  0.306502  1
  F  F20  1  0.237034  0.895009  0.800326  1
  F  F21  1  0.264304  0.398880  0.149312  1
  F  F22  1  0.276673  0.616244  0.312944  1
  F  F23  1  0.264899  0.387252  0.484305  1
  F  F24  1  0.274395  0.385064  0.817232  1
  F  F25  1  0.256040  0.611556  0.647562  1
  F  F26  1  0.254314  0.616959  0.976480  1
  F  F27  1  0.722338  0.619955  0.193480  1
  F  F28  1  0.716031  0.613527  0.534016  1
  F  F29  1  0.733652  0.612223  0.867541  1
  F  F30  1  0.758052  0.891425  0.350372  1
  F  F31  1  0.788100  0.122638  0.184537  1
  F  F32  1  0.759206  0.114349  0.518993  1
  F  F33  1  0.739891  0.881706  0.022350  1
  F  F34  1  0.770042  0.117760  0.848269  1
  F  F35  1  0.777537  0.873568  0.686452  1
