# generated using pymatgen
data_Li2Cr(PO3)5
_symmetry_space_group_name_H-M   'P 1'
_cell_length_a   6.71896034
_cell_length_b   6.71896034
_cell_length_c   13.49164202
_cell_angle_alpha   83.10257468
_cell_angle_beta   96.89742532
_cell_angle_gamma   68.77576609
_symmetry_Int_Tables_number   1
_chemical_formula_structural   Li2Cr(PO3)5
_chemical_formula_sum   'Li4 Cr2 P10 O30'
_cell_volume   554.77637806
_cell_formula_units_Z   2
loop_
 _symmetry_equiv_pos_site_id
 _symmetry_equiv_pos_as_xyz
  1  'x, y, z'
loop_
 _atom_site_type_symbol
 _atom_site_label
 _atom_site_symmetry_multiplicity
 _atom_site_fract_x
 _atom_site_fract_y
 _atom_site_fract_z
 _atom_site_occupancy
  Li  Li0  1  0.770376  0.732292  0.276616  1
  Li  Li1  1  0.267708  0.229624  0.776616  1
  Li  Li2  1  0.188827  0.527167  0.435313  1
  Li  Li3  1  0.472833  0.811173  0.935313  1
  Cr  Cr4  1  0.182642  0.085747  0.222552  1
  Cr  Cr5  1  0.914253  0.817358  0.722552  1
  P  P6  1  0.341430  0.041016  0.470202  1
  P  P7  1  0.707467  0.415350  0.442807  1
  P  P8  1  0.621775  0.189555  0.168866  1
  P  P9  1  0.958984  0.658570  0.970202  1
  P  P10  1  0.584650  0.292533  0.942807  1
  P  P11  1  0.810445  0.378225  0.668866  1
  P  P12  1  0.821795  0.914133  0.472205  1
  P  P13  1  0.085867  0.178205  0.972205  1
  P  P14  1  0.234778  0.576810  0.171964  1
  P  P15  1  0.423190  0.765222  0.671964  1
  O  O16  1  0.856997  0.146708  0.201727  1
  O  O17  1  0.853292  0.143003  0.701727  1
  O  O18  1  0.820271  0.479845  0.364664  1
  O  O19  1  0.520155  0.179729  0.864664  1
  O  O20  1  0.791290  0.156695  0.459460  1
  O  O21  1  0.843306  0.208710  0.959460  1
  O  O22  1  0.565581  0.172905  0.053440  1
  O  O23  1  0.827095  0.434419  0.553440  1
  O  O24  1  0.529677  0.042965  0.228240  1
  O  O25  1  0.957035  0.470323  0.728240  1
  O  O26  1  0.763157  0.692812  0.017376  1
  O  O27  1  0.307188  0.236843  0.517376  1
  O  O28  1  0.193058  0.081626  0.081344  1
  O  O29  1  0.468762  0.520280  0.433199  1
  O  O30  1  0.918374  0.806942  0.581344  1
  O  O31  1  0.489620  0.440300  0.175421  1
  O  O32  1  0.479720  0.531238  0.933199  1
  O  O33  1  0.559700  0.510380  0.675421  1
  O  O34  1  0.942581  0.803427  0.396029  1
  O  O35  1  0.196573  0.057419  0.896029  1
  O  O36  1  0.581884  0.919332  0.449098  1
  O  O37  1  0.080668  0.418116  0.949098  1
  O  O38  1  0.132444  0.420030  0.209774  1
  O  O39  1  0.579970  0.867556  0.709774  1
  O  O40  1  0.144845  0.678169  0.053729  1
  O  O41  1  0.321831  0.855155  0.553729  1
  O  O42  1  0.221650  0.759461  0.229094  1
  O  O43  1  0.240539  0.778350  0.729094  1
  O  O44  1  0.200206  0.059708  0.371079  1
  O  O45  1  0.940292  0.799794  0.871079  1
