# generated using pymatgen
data_LiVP2HO8
_symmetry_space_group_name_H-M   'P 1'
_cell_length_a   7.47108704
_cell_length_b   7.94483458
_cell_length_c   9.73893574
_cell_angle_alpha   90.00000000
_cell_angle_beta   104.96861866
_cell_angle_gamma   90.00000000
_symmetry_Int_Tables_number   1
_chemical_formula_structural   LiVP2HO8
_chemical_formula_sum   'Li4 V4 P8 H4 O32'
_cell_volume   558.45424915
_cell_formula_units_Z   4
loop_
 _symmetry_equiv_pos_site_id
 _symmetry_equiv_pos_as_xyz
  1  'x, y, z'
loop_
 _atom_site_type_symbol
 _atom_site_label
 _atom_site_symmetry_multiplicity
 _atom_site_fract_x
 _atom_site_fract_y
 _atom_site_fract_z
 _atom_site_occupancy
  Li  Li0  1  0.394203  0.130238  0.667903  1
  Li  Li1  1  0.897132  0.369055  0.925583  1
  Li  Li2  1  0.102868  0.869055  0.074417  1
  Li  Li3  1  0.605797  0.630238  0.332097  1
  V  V4  1  0.248197  0.506596  0.623900  1
  V  V5  1  0.741811  0.992333  0.874009  1
  V  V6  1  0.258189  0.492333  0.125991  1
  V  V7  1  0.751803  0.006596  0.376100  1
  P  P8  1  0.520192  0.347451  0.444261  1
  P  P9  1  0.479808  0.847451  0.555739  1
  P  P10  1  0.010537  0.155558  0.687821  1
  P  P11  1  0.986123  0.652317  0.808386  1
  P  P12  1  0.516769  0.352788  0.935352  1
  P  P13  1  0.483231  0.852788  0.064648  1
  P  P14  1  0.013877  0.152317  0.191614  1
  P  P15  1  0.989463  0.655558  0.312179  1
  H  H16  1  0.756796  0.507717  0.635624  1
  H  H17  1  0.235176  0.007468  0.856931  1
  H  H18  1  0.764824  0.507468  0.143069  1
  H  H19  1  0.243204  0.007717  0.364376  1
  O  O20  1  0.101085  0.552650  0.441416  1
  O  O21  1  0.568001  0.173157  0.397008  1
  O  O22  1  0.607746  0.827389  0.453592  1
  O  O23  1  0.690222  0.456245  0.503196  1
  O  O24  1  0.898915  0.052650  0.558584  1
  O  O25  1  0.066047  0.327778  0.642459  1
  O  O26  1  0.309778  0.956245  0.496804  1
  O  O27  1  0.392254  0.327389  0.546408  1
  O  O28  1  0.108896  0.674686  0.705366  1
  O  O29  1  0.195062  0.058800  0.752824  1
  O  O30  1  0.431999  0.673157  0.602992  1
  O  O31  1  0.596036  0.949173  0.690033  1
  O  O32  1  0.808721  0.547787  0.748047  1
  O  O33  1  0.892450  0.169814  0.796816  1
  O  O34  1  0.935186  0.824847  0.862345  1
  O  O35  1  0.094062  0.550512  0.942279  1
  O  O36  1  0.400504  0.451643  0.804072  1
  O  O37  1  0.556939  0.175832  0.881014  1
  O  O38  1  0.610649  0.836529  0.961128  1
  O  O39  1  0.698720  0.439485  0.005616  1
  O  O40  1  0.905938  0.050512  0.057721  1
  O  O41  1  0.064814  0.324847  0.137655  1
  O  O42  1  0.301280  0.939485  0.994384  1
  O  O43  1  0.389351  0.336529  0.038872  1
  O  O44  1  0.107550  0.669814  0.203184  1
  O  O45  1  0.191279  0.047787  0.251953  1
  O  O46  1  0.443061  0.675832  0.118986  1
  O  O47  1  0.599496  0.951643  0.195928  1
  O  O48  1  0.804938  0.558800  0.247176  1
  O  O49  1  0.891104  0.174686  0.294634  1
  O  O50  1  0.933953  0.827778  0.357541  1
  O  O51  1  0.403964  0.449173  0.309967  1
