# generated using pymatgen
data_Li2Mn3(BO3)3
_symmetry_space_group_name_H-M   'P 1'
_cell_length_a   6.34438750
_cell_length_b   8.85077913
_cell_length_c   14.26943666
_cell_angle_alpha   89.06306834
_cell_angle_beta   88.81226496
_cell_angle_gamma   69.72694819
_symmetry_Int_Tables_number   1
_chemical_formula_structural   Li2Mn3(BO3)3
_chemical_formula_sum   'Li8 Mn12 B12 O36'
_cell_volume   751.43404788
_cell_formula_units_Z   4
loop_
 _symmetry_equiv_pos_site_id
 _symmetry_equiv_pos_as_xyz
  1  'x, y, z'
loop_
 _atom_site_type_symbol
 _atom_site_label
 _atom_site_symmetry_multiplicity
 _atom_site_fract_x
 _atom_site_fract_y
 _atom_site_fract_z
 _atom_site_occupancy
  Li  Li0  1  0.823890  0.867518  0.146416  1
  Li  Li1  1  0.858812  0.790668  0.491709  1
  Li  Li2  1  0.837289  0.840281  0.859987  1
  Li  Li3  1  0.305559  0.871004  0.152724  1
  Li  Li4  1  0.575266  0.343505  0.361289  1
  Li  Li5  1  0.562425  0.374245  0.651132  1
  Li  Li6  1  0.065925  0.368922  0.649436  1
  Li  Li7  1  0.094861  0.284484  0.990868  1
  Mn  Mn8  1  0.923470  0.137754  0.500986  1
  Mn  Mn9  1  0.668115  0.675158  0.320301  1
  Mn  Mn10  1  0.908577  0.176027  0.810566  1
  Mn  Mn11  1  0.894119  0.208300  0.186373  1
  Mn  Mn12  1  0.691431  0.626162  0.001571  1
  Mn  Mn13  1  0.660790  0.696460  0.678787  1
  Mn  Mn14  1  0.166730  0.696834  0.676629  1
  Mn  Mn15  1  0.195721  0.633403  0.998217  1
  Mn  Mn16  1  0.404396  0.192630  0.169079  1
  Mn  Mn17  1  0.410907  0.161480  0.826007  1
  Mn  Mn18  1  0.167644  0.668863  0.319752  1
  Mn  Mn19  1  0.418939  0.130143  0.500500  1
  B  B20  1  0.755724  0.999826  0.330945  1
  B  B21  1  0.985669  0.507163  0.163440  1
  B  B22  1  0.001224  0.498570  0.831959  1
  B  B23  1  0.503252  0.987122  0.006273  1
  B  B24  1  0.752826  0.498999  0.503123  1
  B  B25  1  0.507229  0.500326  0.170426  1
  B  B26  1  0.519258  0.493318  0.831383  1
  B  B27  1  0.235547  0.001151  0.327073  1
  B  B28  1  0.753827  0.003950  0.664888  1
  B  B29  1  0.993645  0.004063  0.999488  1
  B  B30  1  0.251347  0.496183  0.503365  1
  B  B31  1  0.238308  0.010532  0.669584  1
  O  O32  1  0.835136  0.852425  0.288399  1
  O  O33  1  0.934264  0.638526  0.778963  1
  O  O34  1  0.991447  0.529637  0.256867  1
  O  O35  1  0.911990  0.638119  0.101092  1
  O  O36  1  0.841369  0.851490  0.626341  1
  O  O37  1  0.006529  0.504522  0.929090  1
  O  O38  1  0.588779  0.851825  0.950599  1
  O  O39  1  0.696761  0.647416  0.460610  1
  O  O40  1  0.936389  0.147616  0.949396  1
  O  O41  1  0.766659  0.485373  0.600617  1
  O  O42  1  0.516385  0.971953  0.103704  1
  O  O43  1  0.794372  0.362050  0.450259  1
  O  O44  1  0.602738  0.344571  0.132828  1
  O  O45  1  0.691933  0.142445  0.276339  1
  O  O46  1  0.450242  0.607107  0.762722  1
  O  O47  1  0.426639  0.631021  0.109809  1
  O  O48  1  0.344895  0.858168  0.637624  1
  O  O49  1  0.330928  0.845492  0.295219  1
  O  O50  1  0.596250  0.331230  0.802906  1
  O  O51  1  0.511078  0.530096  0.925169  1
  O  O52  1  0.498684  0.518173  0.266453  1
  O  O53  1  0.744428  0.020086  0.762898  1
  O  O54  1  0.677867  0.139738  0.607811  1
  O  O55  1  0.732752  0.012677  0.427360  1
  O  O56  1  0.335562  0.357799  0.451029  1
  O  O57  1  0.000275  0.005082  0.098273  1
  O  O58  1  0.258064  0.484879  0.601226  1
  O  O59  1  0.161576  0.644529  0.460569  1
  O  O60  1  0.404289  0.137746  0.967212  1
  O  O61  1  0.042366  0.860509  0.953683  1
  O  O62  1  0.210522  0.038016  0.420511  1
  O  O63  1  0.165726  0.141661  0.608518  1
  O  O64  1  0.068025  0.347687  0.789427  1
  O  O65  1  0.168371  0.125153  0.259333  1
  O  O66  1  0.054229  0.349732  0.125690  1
  O  O67  1  0.203361  0.033218  0.767131  1
