# generated using pymatgen
data_Fe4S5
_symmetry_space_group_name_H-M   'P 1'
_cell_length_a   7.89536162
_cell_length_b   7.89536162
_cell_length_c   10.06905460
_cell_angle_alpha   90.00000000
_cell_angle_beta   90.00000000
_cell_angle_gamma   90.00000000
_symmetry_Int_Tables_number   1
_chemical_formula_structural   Fe4S5
_chemical_formula_sum   'Fe8 S10'
_cell_volume   627.67198904
_cell_formula_units_Z   2
loop_
 _symmetry_equiv_pos_site_id
 _symmetry_equiv_pos_as_xyz
  1  'x, y, z'
loop_
 _atom_site_type_symbol
 _atom_site_label
 _atom_site_symmetry_multiplicity
 _atom_site_fract_x
 _atom_site_fract_y
 _atom_site_fract_z
 _atom_site_occupancy
  Fe  Fe0  1  0.902663  0.205355  0.003809  1
  Fe  Fe1  1  0.794645  0.902663  0.003809  1
  Fe  Fe2  1  0.705297  0.597620  0.995593  1
  Fe  Fe3  1  0.597620  0.294703  0.995593  1
  Fe  Fe4  1  0.097337  0.794645  0.003809  1
  Fe  Fe5  1  0.205355  0.097337  0.003809  1
  Fe  Fe6  1  0.294703  0.402380  0.995593  1
  Fe  Fe7  1  0.402380  0.705297  0.995593  1
  S  S8  1  0.000000  0.000000  0.881494  1
  S  S9  1  0.798199  0.389987  0.874639  1
  S  S10  1  0.701369  0.111884  0.123822  1
  S  S11  1  0.610013  0.798199  0.874639  1
  S  S12  1  0.500000  0.500000  0.118229  1
  S  S13  1  0.111884  0.298631  0.123822  1
  S  S14  1  0.201801  0.610013  0.874639  1
  S  S15  1  0.298631  0.888116  0.123822  1
  S  S16  1  0.389987  0.201801  0.874639  1
  S  S17  1  0.888116  0.701369  0.123822  1
