# generated using pymatgen
data_Er2Si5Ru3
_symmetry_space_group_name_H-M   'P 1'
_cell_length_a   8.22919456
_cell_length_b   8.22919456
_cell_length_c   8.22919456
_cell_angle_alpha   140.32899622
_cell_angle_beta   108.61686066
_cell_angle_gamma   84.89616742
_symmetry_Int_Tables_number   1
_chemical_formula_structural   Er2Si5Ru3
_chemical_formula_sum   'Er4 Si10 Ru6'
_cell_volume   325.62389583
_cell_formula_units_Z   2
loop_
 _symmetry_equiv_pos_site_id
 _symmetry_equiv_pos_as_xyz
  1  'x, y, z'
loop_
 _atom_site_type_symbol
 _atom_site_label
 _atom_site_symmetry_multiplicity
 _atom_site_fract_x
 _atom_site_fract_y
 _atom_site_fract_z
 _atom_site_occupancy
  Er  Er0  1  0.368310  0.135997  0.232312  1
  Er  Er1  1  0.631690  0.864003  0.767688  1
  Er  Er2  1  0.096315  0.364003  0.732312  1
  Er  Er3  1  0.903685  0.635997  0.267688  1
  Si  Si4  1  0.000000  0.250000  0.250000  1
  Si  Si5  1  0.000000  0.750000  0.750000  1
  Si  Si6  1  0.707203  0.957203  0.250000  1
  Si  Si7  1  0.292797  0.542797  0.250000  1
  Si  Si8  1  0.292797  0.042797  0.750000  1
  Si  Si9  1  0.707203  0.457203  0.750000  1
  Si  Si10  1  0.574925  0.404902  0.170024  1
  Si  Si11  1  0.234878  0.904902  0.329976  1
  Si  Si12  1  0.765122  0.095098  0.670024  1
  Si  Si13  1  0.425075  0.595098  0.829976  1
  Ru  Ru14  1  0.945804  0.853437  0.092367  1
  Ru  Ru15  1  0.500000  0.750000  0.250000  1
  Ru  Ru16  1  0.761069  0.353437  0.407633  1
  Ru  Ru17  1  0.238931  0.646563  0.592367  1
  Ru  Ru18  1  0.054196  0.146563  0.907633  1
  Ru  Ru19  1  0.500000  0.250000  0.750000  1
