# generated using pymatgen
data_Li2VCr2O6
_symmetry_space_group_name_H-M   'P 1'
_cell_length_a   7.87141065
_cell_length_b   7.87141065
_cell_length_c   6.00303649
_cell_angle_alpha   78.09533979
_cell_angle_beta   101.90466021
_cell_angle_gamma   110.64012795
_symmetry_Int_Tables_number   1
_chemical_formula_structural   Li2VCr2O6
_chemical_formula_sum   'Li6 V3 Cr6 O18'
_cell_volume   336.93979160
_cell_formula_units_Z   3
loop_
 _symmetry_equiv_pos_site_id
 _symmetry_equiv_pos_as_xyz
  1  'x, y, z'
loop_
 _atom_site_type_symbol
 _atom_site_label
 _atom_site_symmetry_multiplicity
 _atom_site_fract_x
 _atom_site_fract_y
 _atom_site_fract_z
 _atom_site_occupancy
  Li  Li0  1  0.166976  0.500865  0.173057  1
  Li  Li1  1  0.499135  0.833024  0.173057  1
  Li  Li2  1  0.833024  0.499135  0.826943  1
  Li  Li3  1  0.500865  0.166976  0.826943  1
  Li  Li4  1  0.830752  0.830752  0.500000  1
  Li  Li5  1  0.169248  0.169248  0.500000  1
  V  V6  1  0.836009  0.836009  0.000000  1
  V  V7  1  0.500000  0.500000  0.000000  1
  V  V8  1  0.163991  0.163991  0.000000  1
  Cr  Cr9  1  0.168892  0.501658  0.664017  1
  Cr  Cr10  1  0.835217  0.164783  0.663757  1
  Cr  Cr11  1  0.498342  0.831108  0.664017  1
  Cr  Cr12  1  0.831108  0.498342  0.335983  1
  Cr  Cr13  1  0.501658  0.168892  0.335983  1
  Cr  Cr14  1  0.164783  0.835217  0.336243  1
  O  O15  1  0.995246  0.004754  0.770695  1
  O  O16  1  0.998979  0.344309  0.440350  1
  O  O17  1  0.655691  0.001021  0.440350  1
  O  O18  1  0.004754  0.995246  0.229305  1
  O  O19  1  0.016652  0.324785  0.902145  1
  O  O20  1  0.675215  0.983348  0.902145  1
  O  O21  1  0.001021  0.655691  0.559650  1
  O  O22  1  0.678258  0.321742  0.569465  1
  O  O23  1  0.344309  0.998979  0.559650  1
  O  O24  1  0.983348  0.675215  0.097855  1
  O  O25  1  0.650195  0.349805  0.087615  1
  O  O26  1  0.324785  0.016652  0.097855  1
  O  O27  1  0.668329  0.674628  0.777875  1
  O  O28  1  0.325372  0.331671  0.777875  1
  O  O29  1  0.321742  0.678258  0.430535  1
  O  O30  1  0.674628  0.668329  0.222125  1
  O  O31  1  0.331671  0.325372  0.222125  1
  O  O32  1  0.349805  0.650195  0.912385  1
