# generated using pymatgen
data_Th3O2
_symmetry_space_group_name_H-M   'P 1'
_cell_length_a   6.93256310
_cell_length_b   6.93256310
_cell_length_c   6.93256310
_cell_angle_alpha   55.02022956
_cell_angle_beta   55.02022956
_cell_angle_gamma   55.02022956
_symmetry_Int_Tables_number   1
_chemical_formula_structural   Th3O2
_chemical_formula_sum   'Th6 O4'
_cell_volume   208.30042364
_cell_formula_units_Z   2
loop_
 _symmetry_equiv_pos_site_id
 _symmetry_equiv_pos_as_xyz
  1  'x, y, z'
loop_
 _atom_site_type_symbol
 _atom_site_label
 _atom_site_symmetry_multiplicity
 _atom_site_fract_x
 _atom_site_fract_y
 _atom_site_fract_z
 _atom_site_occupancy
  Th  Th0  1  0.917222  0.250000  0.582778  1
  Th  Th1  1  0.250000  0.582778  0.917222  1
  Th  Th2  1  0.582778  0.917222  0.250000  1
  Th  Th3  1  0.417222  0.082778  0.750000  1
  Th  Th4  1  0.750000  0.417222  0.082778  1
  Th  Th5  1  0.082778  0.750000  0.417222  1
  O  O6  1  0.661600  0.661600  0.661600  1
  O  O7  1  0.838400  0.838400  0.838400  1
  O  O8  1  0.161600  0.161600  0.161600  1
  O  O9  1  0.338400  0.338400  0.338400  1
