# generated using pymatgen
data_KBiO3
_symmetry_space_group_name_H-M   'P 1'
_cell_length_a   8.77023122
_cell_length_b   8.77023122
_cell_length_c   10.18497322
_cell_angle_alpha   55.71659701
_cell_angle_beta   124.28340299
_cell_angle_gamma   108.16831186
_symmetry_Int_Tables_number   1
_chemical_formula_structural   KBiO3
_chemical_formula_sum   'K6 Bi6 O18'
_cell_volume   534.81429380
_cell_formula_units_Z   6
loop_
 _symmetry_equiv_pos_site_id
 _symmetry_equiv_pos_as_xyz
  1  'x, y, z'
loop_
 _atom_site_type_symbol
 _atom_site_label
 _atom_site_symmetry_multiplicity
 _atom_site_fract_x
 _atom_site_fract_y
 _atom_site_fract_z
 _atom_site_occupancy
  K  K0  1  0.500000  1.000000  0.000000  1
  K  K1  1  0.680259  0.987992  0.691093  1
  K  K2  1  0.012008  0.319741  0.691093  1
  K  K3  1  0.000000  0.500000  0.000000  1
  K  K4  1  0.319741  0.012008  0.308907  1
  K  K5  1  0.987992  0.680259  0.308907  1
  Bi  Bi6  1  0.341139  0.341139  0.500000  1
  Bi  Bi7  1  0.500067  0.499933  0.840260  1
  Bi  Bi8  1  0.841018  0.158982  0.339101  1
  Bi  Bi9  1  0.158982  0.841018  0.660899  1
  Bi  Bi10  1  0.658861  0.658861  0.500000  1
  Bi  Bi11  1  0.499933  0.500067  0.159740  1
  O  O12  1  0.376846  0.048241  0.660086  1
  O  O13  1  0.005371  0.994629  0.364523  1
  O  O14  1  0.994629  0.005371  0.635477  1
  O  O15  1  0.360404  0.360404  0.000000  1
  O  O16  1  0.639596  0.639596  0.000000  1
  O  O17  1  0.332801  0.338073  0.710789  1
  O  O18  1  0.661927  0.667199  0.710789  1
  O  O19  1  0.048241  0.376846  0.339914  1
  O  O20  1  0.285882  0.714118  0.950752  1
  O  O21  1  0.287204  0.712796  0.620063  1
  O  O22  1  0.712796  0.287204  0.379937  1
  O  O23  1  0.714118  0.285882  0.049248  1
  O  O24  1  0.951759  0.623154  0.660086  1
  O  O25  1  0.640016  0.359984  0.636064  1
  O  O26  1  0.667199  0.661927  0.289211  1
  O  O27  1  0.338073  0.332801  0.289211  1
  O  O28  1  0.359984  0.640016  0.363936  1
  O  O29  1  0.623154  0.951759  0.339914  1
