# generated using pymatgen
data_Li2Mn3(BO3)3
_symmetry_space_group_name_H-M   'P 1'
_cell_length_a   8.82437180
_cell_length_b   8.82437180
_cell_length_c   14.40464146
_cell_angle_alpha   89.94873186
_cell_angle_beta   90.05126814
_cell_angle_gamma   137.90227258
_symmetry_Int_Tables_number   1
_chemical_formula_structural   Li2Mn3(BO3)3
_chemical_formula_sum   'Li8 Mn12 B12 O36'
_cell_volume   751.97263075
_cell_formula_units_Z   4
loop_
 _symmetry_equiv_pos_site_id
 _symmetry_equiv_pos_as_xyz
  1  'x, y, z'
loop_
 _atom_site_type_symbol
 _atom_site_label
 _atom_site_symmetry_multiplicity
 _atom_site_fract_x
 _atom_site_fract_y
 _atom_site_fract_z
 _atom_site_occupancy
  Li  Li0  1  0.144842  0.855158  0.509620  1
  Li  Li1  1  0.171046  0.828954  0.139143  1
  Li  Li2  1  0.396203  0.603797  0.014226  1
  Li  Li3  1  0.685681  0.314319  0.848658  1
  Li  Li4  1  0.420933  0.579067  0.638592  1
  Li  Li5  1  0.646923  0.353077  0.510628  1
  Li  Li6  1  0.893768  0.106232  0.007781  1
  Li  Li7  1  0.935565  0.064435  0.351214  1
  Mn  Mn8  1  0.329536  0.160448  0.689127  1
  Mn  Mn9  1  0.319817  0.177452  0.994535  1
  Mn  Mn10  1  0.093588  0.406129  0.816200  1
  Mn  Mn11  1  0.083119  0.413830  0.189057  1
  Mn  Mn12  1  0.072885  0.429667  0.494342  1
  Mn  Mn13  1  0.346637  0.160111  0.315938  1
  Mn  Mn14  1  0.839889  0.653363  0.315938  1
  Mn  Mn15  1  0.570333  0.927115  0.494342  1
  Mn  Mn16  1  0.586170  0.916881  0.189057  1
  Mn  Mn17  1  0.593871  0.906412  0.816200  1
  Mn  Mn18  1  0.822548  0.680183  0.994535  1
  Mn  Mn19  1  0.839552  0.670464  0.689127  1
  B  B20  1  0.249524  0.750476  0.662943  1
  B  B21  1  0.245014  0.754986  0.334099  1
  B  B22  1  0.002237  0.496861  0.999756  1
  B  B23  1  0.253848  0.246509  0.499823  1
  B  B24  1  0.498067  0.501933  0.833853  1
  B  B25  1  0.497416  0.502584  0.164054  1
  B  B26  1  0.746406  0.253594  0.667035  1
  B  B27  1  0.753491  0.746152  0.499823  1
  B  B28  1  0.503139  0.997763  0.999756  1
  B  B29  1  0.751981  0.248019  0.336368  1
  B  B30  1  0.000015  0.999985  0.838241  1
  B  B31  1  0.998866  0.001134  0.165216  1
  O  O32  1  0.069393  0.930607  0.217853  1
  O  O33  1  0.012212  0.987788  0.743140  1
  O  O34  1  0.003431  0.996569  0.069582  1
  O  O35  1  0.066185  0.933815  0.897522  1
  O  O36  1  0.171580  0.828420  0.696603  1
  O  O37  1  0.166042  0.833958  0.370657  1
  O  O38  1  0.230474  0.231411  0.404549  1
  O  O39  1  0.415361  0.049783  0.051188  1
  O  O40  1  0.077287  0.421078  0.044302  1
  O  O41  1  0.331828  0.173312  0.544006  1
  O  O42  1  0.200318  0.332743  0.551099  1
  O  O43  1  0.517382  0.019561  0.904646  1
  O  O44  1  0.420958  0.579042  0.873491  1
  O  O45  1  0.310751  0.689249  0.391723  1
  O  O46  1  0.416315  0.583685  0.189296  1
  O  O47  1  0.505935  0.494065  0.737311  1
  O  O48  1  0.514806  0.485194  0.069324  1
  O  O49  1  0.558151  0.441849  0.229812  1
  O  O50  1  0.567137  0.432863  0.888937  1
  O  O51  1  0.674194  0.325806  0.373475  1
  O  O52  1  0.260690  0.739310  0.567330  1
  O  O53  1  0.255155  0.744845  0.237555  1
  O  O54  1  0.317581  0.682419  0.720051  1
  O  O55  1  0.668026  0.331974  0.704508  1
  O  O56  1  0.980439  0.482618  0.904646  1
  O  O57  1  0.667257  0.799682  0.551099  1
  O  O58  1  0.826688  0.668172  0.544006  1
  O  O59  1  0.578922  0.922713  0.044302  1
  O  O60  1  0.950217  0.584639  0.051188  1
  O  O61  1  0.768589  0.769526  0.404549  1
  O  O62  1  0.810044  0.189956  0.729078  1
  O  O63  1  0.757527  0.242473  0.571995  1
  O  O64  1  0.762703  0.237297  0.241066  1
  O  O65  1  0.820208  0.179792  0.394250  1
  O  O66  1  0.921181  0.078819  0.873102  1
  O  O67  1  0.923963  0.076037  0.209864  1
