# generated using pymatgen
data_Na2Ti9O19
_symmetry_space_group_name_H-M   'P 1'
_cell_length_a   6.54900483
_cell_length_b   6.54900483
_cell_length_c   15.89394826
_cell_angle_alpha   76.42587828
_cell_angle_beta   103.57412172
_cell_angle_gamma   146.34014636
_symmetry_Int_Tables_number   1
_chemical_formula_structural   Na2Ti9O19
_chemical_formula_sum   'Na2 Ti9 O19'
_cell_volume   366.29574658
_cell_formula_units_Z   1
loop_
 _symmetry_equiv_pos_site_id
 _symmetry_equiv_pos_as_xyz
  1  'x, y, z'
loop_
 _atom_site_type_symbol
 _atom_site_label
 _atom_site_symmetry_multiplicity
 _atom_site_fract_x
 _atom_site_fract_y
 _atom_site_fract_z
 _atom_site_occupancy
  Na  Na0  1  0.000314  0.999686  0.999700  1
  Na  Na1  1  0.711767  0.288233  0.498612  1
  Ti  Ti2  1  0.786639  0.213361  0.297518  1
  Ti  Ti3  1  0.200506  0.799494  0.119599  1
  Ti  Ti4  1  0.916330  0.083670  0.700757  1
  Ti  Ti5  1  0.106259  0.893741  0.868007  1
  Ti  Ti6  1  0.996517  0.003483  0.499827  1
  Ti  Ti7  1  0.895137  0.104863  0.131824  1
  Ti  Ti8  1  0.086872  0.913128  0.300466  1
  Ti  Ti9  1  0.800293  0.199707  0.880399  1
  Ti  Ti10  1  0.216323  0.783677  0.701428  1
  O  O11  1  0.162933  0.837067  0.003956  1
  O  O12  1  0.377590  0.622410  0.707602  1
  O  O13  1  0.246661  0.753339  0.269372  1
  O  O14  1  0.954976  0.045024  0.859804  1
  O  O15  1  0.731713  0.268287  0.146910  1
  O  O16  1  0.909340  0.090660  0.588513  1
  O  O17  1  0.852849  0.147151  0.409186  1
  O  O18  1  0.362087  0.637913  0.125905  1
  O  O19  1  0.928601  0.071399  0.258461  1
  O  O20  1  0.508353  0.491647  0.500163  1
  O  O21  1  0.837836  0.162164  0.996118  1
  O  O22  1  0.073986  0.926014  0.741637  1
  O  O23  1  0.638970  0.361030  0.874220  1
  O  O24  1  0.153228  0.846772  0.590087  1
  O  O25  1  0.095731  0.904269  0.412147  1
  O  O26  1  0.269773  0.730227  0.853870  1
  O  O27  1  0.046154  0.953846  0.139630  1
  O  O28  1  0.755560  0.244440  0.729824  1
  O  O29  1  0.626685  0.373315  0.294457  1
