# generated using pymatgen
data_Fe4O7F
_symmetry_space_group_name_H-M   'P 1'
_cell_length_a   5.52152659
_cell_length_b   5.52572549
_cell_length_c   8.89185927
_cell_angle_alpha   85.80880760
_cell_angle_beta   85.83847289
_cell_angle_gamma   73.00912226
_symmetry_Int_Tables_number   1
_chemical_formula_structural   Fe4O7F
_chemical_formula_sum   'Fe8 O14 F2'
_cell_volume   258.38577944
_cell_formula_units_Z   2
loop_
 _symmetry_equiv_pos_site_id
 _symmetry_equiv_pos_as_xyz
  1  'x, y, z'
loop_
 _atom_site_type_symbol
 _atom_site_label
 _atom_site_symmetry_multiplicity
 _atom_site_fract_x
 _atom_site_fract_y
 _atom_site_fract_z
 _atom_site_occupancy
  Fe  Fe0  1  0.113746  0.125252  0.381649  1
  Fe  Fe1  1  0.372739  0.388006  0.118298  1
  Fe  Fe2  1  0.491277  0.498635  0.497485  1
  Fe  Fe3  1  0.261046  0.260916  0.751605  1
  Fe  Fe4  1  0.768716  0.727009  0.248827  1
  Fe  Fe5  1  0.629578  0.632336  0.875622  1
  Fe  Fe6  1  0.861400  0.865704  0.616905  1
  Fe  Fe7  1  0.001075  0.008524  0.010206  1
  O  O8  1  0.066613  0.426812  0.250731  1
  O  O9  1  0.182401  0.808542  0.502881  1
  O  O10  1  0.277240  0.279529  0.528036  1
  O  O11  1  0.526399  0.524224  0.278539  1
  O  O12  1  0.785036  0.779891  0.032300  1
  O  O13  1  0.474965  0.482229  0.714965  1
  O  O14  1  0.223472  0.225070  0.971252  1
  O  O15  1  0.712590  0.710913  0.466384  1
  O  O16  1  0.970810  0.965114  0.229910  1
  O  O17  1  0.559913  0.945113  0.750303  1
  O  O18  1  0.796869  0.186088  0.506021  1
  O  O19  1  0.312303  0.705236  0.993305  1
  O  O20  1  0.941490  0.562536  0.750290  1
  O  O21  1  0.695250  0.314397  0.996852  1
  F  F22  1  0.447759  0.046928  0.250095  1
  F  F23  1  0.027312  0.030994  0.777536  1
