# generated using pymatgen
data_Ni6OF11
_symmetry_space_group_name_H-M   'P 1'
_cell_length_a   4.69776339
_cell_length_b   5.63391842
_cell_length_c   7.78905712
_cell_angle_alpha   86.40087565
_cell_angle_beta   89.67108664
_cell_angle_gamma   89.57414011
_symmetry_Int_Tables_number   1
_chemical_formula_structural   Ni6OF11
_chemical_formula_sum   'Ni6 O1 F11'
_cell_volume   205.73638800
_cell_formula_units_Z   1
loop_
 _symmetry_equiv_pos_site_id
 _symmetry_equiv_pos_as_xyz
  1  'x, y, z'
loop_
 _atom_site_type_symbol
 _atom_site_label
 _atom_site_symmetry_multiplicity
 _atom_site_fract_x
 _atom_site_fract_y
 _atom_site_fract_z
 _atom_site_occupancy
  Ni  Ni0  1  0.511158  0.494317  0.996640  1
  Ni  Ni1  1  0.497637  0.167858  0.334791  1
  Ni  Ni2  1  0.499260  0.832329  0.665845  1
  Ni  Ni3  1  0.003364  0.665619  0.331291  1
  Ni  Ni4  1  0.991843  0.334534  0.673353  1
  Ni  Ni5  1  0.994362  0.006576  0.998805  1
  O  O6  1  0.804904  0.296342  0.899171  1
  F  F7  1  0.803955  0.631437  0.564711  1
  F  F8  1  0.803673  0.964688  0.232480  1
  F  F9  1  0.696634  0.797781  0.897969  1
  F  F10  1  0.694754  0.465462  0.233199  1
  F  F11  1  0.697103  0.129597  0.565185  1
  F  F12  1  0.303782  0.868587  0.433521  1
  F  F13  1  0.304404  0.535052  0.767889  1
  F  F14  1  0.303434  0.203394  0.101964  1
  F  F15  1  0.198774  0.035661  0.767581  1
  F  F16  1  0.192611  0.368033  0.439088  1
  F  F17  1  0.198348  0.702731  0.096517  1
