# generated using pymatgen
data_LiMnO2
_symmetry_space_group_name_H-M   'P 1'
_cell_length_a   4.29809476
_cell_length_b   5.91777455
_cell_length_c   8.72162975
_cell_angle_alpha   90.00000000
_cell_angle_beta   90.00000000
_cell_angle_gamma   90.00000000
_symmetry_Int_Tables_number   1
_chemical_formula_structural   LiMnO2
_chemical_formula_sum   'Li6 Mn6 O12'
_cell_volume   221.83601129
_cell_formula_units_Z   6
loop_
 _symmetry_equiv_pos_site_id
 _symmetry_equiv_pos_as_xyz
  1  'x, y, z'
loop_
 _atom_site_type_symbol
 _atom_site_label
 _atom_site_symmetry_multiplicity
 _atom_site_fract_x
 _atom_site_fract_y
 _atom_site_fract_z
 _atom_site_occupancy
  Li  Li0  1  0.000000  0.870451  0.833890  1
  Li  Li1  1  0.000000  0.870451  0.166110  1
  Li  Li2  1  0.000000  0.377178  0.500000  1
  Li  Li3  1  0.500000  0.622822  0.000000  1
  Li  Li4  1  0.500000  0.129549  0.333890  1
  Li  Li5  1  0.500000  0.129549  0.666110  1
  Mn  Mn6  1  0.000000  0.368735  0.828570  1
  Mn  Mn7  1  0.000000  0.907321  0.500000  1
  Mn  Mn8  1  0.000000  0.368735  0.171430  1
  Mn  Mn9  1  0.500000  0.631265  0.328570  1
  Mn  Mn10  1  0.500000  0.631265  0.671430  1
  Mn  Mn11  1  0.500000  0.092679  0.000000  1
  O  O12  1  0.000000  0.580300  0.000000  1
  O  O13  1  0.000000  0.624431  0.326608  1
  O  O14  1  0.000000  0.624431  0.673392  1
  O  O15  1  0.000000  0.133779  0.000000  1
  O  O16  1  0.000000  0.139703  0.328606  1
  O  O17  1  0.000000  0.139703  0.671394  1
  O  O18  1  0.500000  0.860297  0.828606  1
  O  O19  1  0.500000  0.866221  0.500000  1
  O  O20  1  0.500000  0.860297  0.171394  1
  O  O21  1  0.500000  0.419700  0.500000  1
  O  O22  1  0.500000  0.375569  0.826608  1
  O  O23  1  0.500000  0.375569  0.173392  1
