# generated using pymatgen
data_LiV2(PO4)3
_symmetry_space_group_name_H-M   'P 1'
_cell_length_a   8.53684454
_cell_length_b   8.57074446
_cell_length_c   14.81507839
_cell_angle_alpha   90.00000000
_cell_angle_beta   125.03936499
_cell_angle_gamma   90.00000000
_symmetry_Int_Tables_number   1
_chemical_formula_structural   LiV2(PO4)3
_chemical_formula_sum   'Li4 V8 P12 O48'
_cell_volume   887.51420116
_cell_formula_units_Z   4
loop_
 _symmetry_equiv_pos_site_id
 _symmetry_equiv_pos_as_xyz
  1  'x, y, z'
loop_
 _atom_site_type_symbol
 _atom_site_label
 _atom_site_symmetry_multiplicity
 _atom_site_fract_x
 _atom_site_fract_y
 _atom_site_fract_z
 _atom_site_occupancy
  Li  Li0  1  0.227965  0.088653  0.296909  1
  Li  Li1  1  0.772035  0.588653  0.203091  1
  Li  Li2  1  0.227965  0.411347  0.796909  1
  Li  Li3  1  0.772035  0.911347  0.703091  1
  V  V4  1  0.857081  0.032424  0.111156  1
  V  V5  1  0.142919  0.532424  0.388844  1
  V  V6  1  0.359002  0.968799  0.616572  1
  V  V7  1  0.640998  0.468799  0.883428  1
  V  V8  1  0.359002  0.531201  0.116572  1
  V  V9  1  0.640998  0.031201  0.383428  1
  V  V10  1  0.857081  0.467576  0.611156  1
  V  V11  1  0.142919  0.967576  0.888844  1
  P  P12  1  0.471390  0.247551  0.505396  1
  P  P13  1  0.035693  0.390950  0.146161  1
  P  P14  1  0.748239  0.109011  0.855471  1
  P  P15  1  0.964307  0.890950  0.353839  1
  P  P16  1  0.251761  0.609011  0.644529  1
  P  P17  1  0.528610  0.747551  0.994604  1
  P  P18  1  0.471390  0.252449  0.005396  1
  P  P19  1  0.748239  0.390989  0.355471  1
  P  P20  1  0.035693  0.109050  0.646161  1
  P  P21  1  0.251761  0.890989  0.144529  1
  P  P22  1  0.964307  0.609050  0.853839  1
  P  P23  1  0.528610  0.752449  0.494604  1
  O  O24  1  0.514125  0.866895  0.570179  1
  O  O25  1  0.057041  0.896944  0.130896  1
  O  O26  1  0.333621  0.675712  0.408228  1
  O  O27  1  0.765668  0.577632  0.829509  1
  O  O28  1  0.315059  0.362707  0.424228  1
  O  O29  1  0.873163  0.430365  0.027635  1
  O  O30  1  0.035763  0.213515  0.169348  1
  O  O31  1  0.614819  0.998144  0.758420  1
  O  O32  1  0.667910  0.277211  0.828071  1
  O  O33  1  0.401648  0.160004  0.567013  1
  O  O34  1  0.768194  0.054537  0.959795  1
  O  O35  1  0.012659  0.492703  0.224835  1
  O  O36  1  0.987341  0.992703  0.275165  1
  O  O37  1  0.231806  0.554537  0.540205  1
  O  O38  1  0.598352  0.660004  0.932987  1
  O  O39  1  0.332090  0.777211  0.671929  1
  O  O40  1  0.964237  0.713515  0.330652  1
  O  O41  1  0.126837  0.930365  0.472365  1
  O  O42  1  0.385181  0.498144  0.741580  1
  O  O43  1  0.684941  0.862707  0.075772  1
  O  O44  1  0.666379  0.175712  0.091772  1
  O  O45  1  0.942959  0.396944  0.369104  1
  O  O46  1  0.234332  0.077632  0.670491  1
  O  O47  1  0.485875  0.366895  0.929821  1
  O  O48  1  0.514125  0.633105  0.070179  1
  O  O49  1  0.765668  0.922368  0.329509  1
  O  O50  1  0.057041  0.603056  0.630896  1
  O  O51  1  0.333621  0.824288  0.908228  1
  O  O52  1  0.315059  0.137293  0.924228  1
  O  O53  1  0.614819  0.501856  0.258420  1
  O  O54  1  0.873163  0.069635  0.527635  1
  O  O55  1  0.035763  0.286485  0.669348  1
  O  O56  1  0.667910  0.222789  0.328071  1
  O  O57  1  0.401648  0.339996  0.067013  1
  O  O58  1  0.768194  0.445463  0.459795  1
  O  O59  1  0.012659  0.007297  0.724835  1
  O  O60  1  0.987341  0.507297  0.775165  1
  O  O61  1  0.231806  0.945463  0.040205  1
  O  O62  1  0.598352  0.839996  0.432987  1
  O  O63  1  0.332090  0.722789  0.171929  1
  O  O64  1  0.385181  0.001856  0.241580  1
  O  O65  1  0.964237  0.786485  0.830652  1
  O  O66  1  0.126837  0.569635  0.972365  1
  O  O67  1  0.684941  0.637293  0.575772  1
  O  O68  1  0.234332  0.422368  0.170491  1
  O  O69  1  0.666379  0.324288  0.591772  1
  O  O70  1  0.942959  0.103056  0.869104  1
  O  O71  1  0.485875  0.133105  0.429821  1
