# generated using pymatgen
data_LiV2(PO4)3
_symmetry_space_group_name_H-M   'P 1'
_cell_length_a   8.33888151
_cell_length_b   8.34909704
_cell_length_c   8.87455775
_cell_angle_alpha   117.63968281
_cell_angle_beta   90.25585146
_cell_angle_gamma   119.90199881
_symmetry_Int_Tables_number   1
_chemical_formula_structural   LiV2(PO4)3
_chemical_formula_sum   'Li2 V4 P6 O24'
_cell_volume   451.58422034
_cell_formula_units_Z   2
loop_
 _symmetry_equiv_pos_site_id
 _symmetry_equiv_pos_as_xyz
  1  'x, y, z'
loop_
 _atom_site_type_symbol
 _atom_site_label
 _atom_site_symmetry_multiplicity
 _atom_site_fract_x
 _atom_site_fract_y
 _atom_site_fract_z
 _atom_site_occupancy
  Li  Li0  1  0.398159  0.078712  0.861753  1
  Li  Li1  1  0.601841  0.921288  0.138247  1
  V  V2  1  0.712651  0.360497  0.942705  1
  V  V3  1  0.717577  0.853002  0.429376  1
  V  V4  1  0.282423  0.146998  0.570624  1
  V  V5  1  0.287349  0.639503  0.057295  1
  P  P6  1  0.500806  0.467070  0.751770  1
  P  P7  1  0.221878  0.753102  0.745461  1
  P  P8  1  0.784224  0.033905  0.751101  1
  P  P9  1  0.215776  0.966095  0.248899  1
  P  P10  1  0.778122  0.246898  0.254539  1
  P  P11  1  0.499194  0.532930  0.248230  1
  O  O12  1  0.326653  0.495024  0.894153  1
  O  O13  1  0.661816  0.487366  0.802959  1
  O  O14  1  0.021399  0.543918  0.800782  1
  O  O15  1  0.269748  0.788977  0.897601  1
  O  O16  1  0.613587  0.845636  0.916901  1
  O  O17  1  0.630107  0.621033  0.571043  1
  O  O18  1  0.172322  0.902354  0.720659  1
  O  O19  1  0.420078  0.790028  0.572004  1
  O  O20  1  0.716721  0.179893  0.794469  1
  O  O21  1  0.007845  0.116382  0.728801  1
  O  O22  1  0.795724  0.996969  0.580293  1
  O  O23  1  0.379186  0.261576  0.737298  1
  O  O24  1  0.620814  0.738424  0.262702  1
  O  O25  1  0.204276  0.003031  0.419707  1
  O  O26  1  0.992155  0.883618  0.271199  1
  O  O27  1  0.283279  0.820107  0.205531  1
  O  O28  1  0.579922  0.209972  0.427996  1
  O  O29  1  0.827678  0.097646  0.279341  1
  O  O30  1  0.369893  0.378967  0.428957  1
  O  O31  1  0.386413  0.154364  0.083099  1
  O  O32  1  0.730252  0.211023  0.102399  1
  O  O33  1  0.978601  0.456082  0.199218  1
  O  O34  1  0.338184  0.512634  0.197041  1
  O  O35  1  0.673347  0.504976  0.105847  1
