# generated using pymatgen
data_LiFe4(BO3)4
_symmetry_space_group_name_H-M   'P 1'
_cell_length_a   5.25785329
_cell_length_b   5.25818217
_cell_length_c   20.16227626
_cell_angle_alpha   89.95562225
_cell_angle_beta   90.19017221
_cell_angle_gamma   119.21702935
_symmetry_Int_Tables_number   1
_chemical_formula_structural   LiFe4(BO3)4
_chemical_formula_sum   'Li2 Fe8 B8 O24'
_cell_volume   486.50170770
_cell_formula_units_Z   2
loop_
 _symmetry_equiv_pos_site_id
 _symmetry_equiv_pos_as_xyz
  1  'x, y, z'
loop_
 _atom_site_type_symbol
 _atom_site_label
 _atom_site_symmetry_multiplicity
 _atom_site_fract_x
 _atom_site_fract_y
 _atom_site_fract_z
 _atom_site_occupancy
  Li  Li0  1  0.667393  0.640893  0.331701  1
  Li  Li1  1  0.643178  0.669108  0.078919  1
  Fe  Fe2  1  0.015503  0.675804  0.188895  1
  Fe  Fe3  1  0.003950  0.674908  0.689556  1
  Fe  Fe4  1  0.314478  0.010077  0.061939  1
  Fe  Fe5  1  0.328153  0.997280  0.565542  1
  Fe  Fe6  1  0.676751  0.017386  0.439289  1
  Fe  Fe7  1  0.674277  0.002937  0.939516  1
  Fe  Fe8  1  0.006943  0.314899  0.312746  1
  Fe  Fe9  1  0.998174  0.325218  0.814488  1
  B  B10  1  0.995987  0.341204  0.063836  1
  B  B11  1  0.998772  0.337934  0.564516  1
  B  B12  1  0.670734  0.010650  0.186722  1
  B  B13  1  0.664382  0.004944  0.688784  1
  B  B14  1  0.335525  0.995112  0.314247  1
  B  B15  1  0.341976  0.997359  0.813666  1
  B  B16  1  0.010308  0.669528  0.438296  1
  B  B17  1  0.004080  0.664826  0.937837  1
  O  O18  1  0.885356  0.273714  0.211874  1
  O  O19  1  0.874594  0.270695  0.715590  1
  O  O20  1  0.743847  0.090628  0.040852  1
  O  O21  1  0.966770  0.579494  0.086619  1
  O  O22  1  0.731994  0.123388  0.538081  1
  O  O23  1  0.010899  0.594339  0.588349  1
  O  O24  1  0.402770  0.980002  0.168141  1
  O  O25  1  0.786241  0.726252  0.428161  1
  O  O26  1  0.406176  0.989405  0.664425  1
  O  O27  1  0.764523  0.699715  0.940647  1
  O  O28  1  0.719184  0.778785  0.178700  1
  O  O29  1  0.708990  0.773200  0.686173  1
  O  O30  1  0.351424  0.260121  0.315983  1
  O  O31  1  0.294381  0.227652  0.815797  1
  O  O32  1  0.259025  0.353476  0.064873  1
  O  O33  1  0.572551  0.963208  0.337510  1
  O  O34  1  0.232031  0.295045  0.566223  1
  O  O35  1  0.599266  0.010281  0.837045  1
  O  O36  1  0.982897  0.405820  0.417344  1
  O  O37  1  0.982568  0.402600  0.914544  1
  O  O38  1  0.272334  0.878080  0.466664  1
  O  O39  1  0.272679  0.881902  0.960120  1
  O  O40  1  0.083425  0.745418  0.291123  1
  O  O41  1  0.129176  0.730382  0.786829  1
