# generated using pymatgen
data_Co2OF3
_symmetry_space_group_name_H-M   'P 1'
_cell_length_a   10.08497692
_cell_length_b   10.08497692
_cell_length_c   4.80451376
_cell_angle_alpha   87.44433482
_cell_angle_beta   92.55566518
_cell_angle_gamma   144.77611522
_symmetry_Int_Tables_number   1
_chemical_formula_structural   Co2OF3
_chemical_formula_sum   'Co8 O4 F12'
_cell_volume   281.53236913
_cell_formula_units_Z   4
loop_
 _symmetry_equiv_pos_site_id
 _symmetry_equiv_pos_as_xyz
  1  'x, y, z'
loop_
 _atom_site_type_symbol
 _atom_site_label
 _atom_site_symmetry_multiplicity
 _atom_site_fract_x
 _atom_site_fract_y
 _atom_site_fract_z
 _atom_site_occupancy
  Co  Co0  1  0.868310  0.618180  0.500714  1
  Co  Co1  1  0.381820  0.131690  0.500714  1
  Co  Co2  1  0.131690  0.381820  0.499286  1
  Co  Co3  1  0.618180  0.868310  0.499286  1
  Co  Co4  1  0.500000  0.500000  0.000000  1
  Co  Co5  1  0.239997  0.760003  0.960401  1
  Co  Co6  1  1.000000  1.000000  0.000000  1
  Co  Co7  1  0.760003  0.239997  0.039599  1
  O  O8  1  0.829764  0.170236  0.319393  1
  O  O9  1  0.581656  0.418344  0.327034  1
  O  O10  1  0.170236  0.829764  0.680607  1
  O  O11  1  0.418344  0.581656  0.672966  1
  F  F12  1  0.951637  0.547716  0.192607  1
  F  F13  1  0.201187  0.299600  0.195211  1
  F  F14  1  0.452284  0.048363  0.192607  1
  F  F15  1  0.700400  0.798813  0.195211  1
  F  F16  1  0.075260  0.924740  0.298767  1
  F  F17  1  0.319541  0.680459  0.282880  1
  F  F18  1  0.924740  0.075260  0.701233  1
  F  F19  1  0.680459  0.319541  0.717120  1
  F  F20  1  0.547716  0.951637  0.807393  1
  F  F21  1  0.048363  0.452284  0.807393  1
  F  F22  1  0.798813  0.700400  0.804789  1
  F  F23  1  0.299600  0.201187  0.804789  1
