# generated using pymatgen
data_LiMn2(BO3)2
_symmetry_space_group_name_H-M   'P 1'
_cell_length_a   5.30435383
_cell_length_b   9.14812599
_cell_length_c   11.54236480
_cell_angle_alpha   112.63512516
_cell_angle_beta   101.95435249
_cell_angle_gamma   89.53637805
_symmetry_Int_Tables_number   1
_chemical_formula_structural   LiMn2(BO3)2
_chemical_formula_sum   'Li4 Mn8 B8 O24'
_cell_volume   504.14590966
_cell_formula_units_Z   4
loop_
 _symmetry_equiv_pos_site_id
 _symmetry_equiv_pos_as_xyz
  1  'x, y, z'
loop_
 _atom_site_type_symbol
 _atom_site_label
 _atom_site_symmetry_multiplicity
 _atom_site_fract_x
 _atom_site_fract_y
 _atom_site_fract_z
 _atom_site_occupancy
  Li  Li0  1  0.692110  0.837181  0.666737  1
  Li  Li1  1  0.452623  0.577336  0.168944  1
  Li  Li2  1  0.325338  0.155596  0.348159  1
  Li  Li3  1  0.170713  0.330860  0.656853  1
  Mn  Mn4  1  0.922003  0.755479  0.132915  1
  Mn  Mn5  1  0.856546  0.352360  0.378360  1
  Mn  Mn6  1  0.655214  0.144949  0.628119  1
  Mn  Mn7  1  0.419176  0.233781  0.131333  1
  Mn  Mn8  1  0.595558  0.781818  0.881830  1
  Mn  Mn9  1  0.344686  0.841908  0.386607  1
  Mn  Mn10  1  0.167380  0.638842  0.627244  1
  Mn  Mn11  1  0.085477  0.282611  0.886032  1
  B  B12  1  0.902376  0.412801  0.133360  1
  B  B13  1  0.856453  0.021102  0.382293  1
  B  B14  1  0.649313  0.478971  0.626910  1
  B  B15  1  0.404791  0.893663  0.138808  1
  B  B16  1  0.589321  0.114313  0.868796  1
  B  B17  1  0.356006  0.502537  0.372753  1
  B  B18  1  0.146143  0.974548  0.627536  1
  B  B19  1  0.096040  0.616383  0.867635  1
  O  O20  1  0.926425  0.866731  0.320097  1
  O  O21  1  0.782476  0.540655  0.125572  1
  O  O22  1  0.799765  0.309884  0.179350  1
  O  O23  1  0.882300  0.463862  0.585883  1
  O  O24  1  0.603309  0.843310  0.075497  1
  O  O25  1  0.938556  0.693601  0.952488  1
  O  O26  1  0.632207  0.038526  0.435663  1
  O  O27  1  0.676203  0.969419  0.840917  1
  O  O28  1  0.459448  0.619322  0.349965  1
  O  O29  1  0.671166  0.217192  0.815018  1
  O  O30  1  0.432935  0.344516  0.321702  1
  O  O31  1  0.559626  0.632092  0.670670  1
  O  O32  1  0.316293  0.038872  0.162142  1
  O  O33  1  0.511143  0.349530  0.620080  1
  O  O34  1  0.305528  0.785040  0.182371  1
  O  O35  1  0.384515  0.961392  0.588536  1
  O  O36  1  0.138240  0.377432  0.092739  1
  O  O37  1  0.410883  0.172998  0.947582  1
  O  O38  1  0.168098  0.523651  0.445046  1
  O  O39  1  0.186799  0.712530  0.810752  1
  O  O40  1  0.000299  0.149984  0.394659  1
  O  O41  1  0.153523  0.464530  0.835772  1
  O  O42  1  0.048912  0.125438  0.668791  1
  O  O43  1  0.016690  0.843139  0.620394  1
