# generated using pymatgen
data_NaMgP3(H4O5)2
_symmetry_space_group_name_H-M   'P 1'
_cell_length_a   9.14874801
_cell_length_b   14.84310189
_cell_length_c   14.96395886
_cell_angle_alpha   90.00000000
_cell_angle_beta   90.00000000
_cell_angle_gamma   90.00000000
_symmetry_Int_Tables_number   1
_chemical_formula_structural   NaMgP3(H4O5)2
_chemical_formula_sum   'Na8 Mg8 P24 H64 O80'
_cell_volume   2032.04274778
_cell_formula_units_Z   8
loop_
 _symmetry_equiv_pos_site_id
 _symmetry_equiv_pos_as_xyz
  1  'x, y, z'
loop_
 _atom_site_type_symbol
 _atom_site_label
 _atom_site_symmetry_multiplicity
 _atom_site_fract_x
 _atom_site_fract_y
 _atom_site_fract_z
 _atom_site_occupancy
  Na  Na0  1  0.437226  0.933840  0.341397  1
  Na  Na1  1  0.062774  0.933840  0.841397  1
  Na  Na2  1  0.937226  0.566160  0.341397  1
  Na  Na3  1  0.562774  0.566160  0.841397  1
  Na  Na4  1  0.437226  0.433840  0.158603  1
  Na  Na5  1  0.062774  0.433840  0.658603  1
  Na  Na6  1  0.937226  0.066160  0.158603  1
  Na  Na7  1  0.562774  0.066160  0.658603  1
  Mg  Mg8  1  0.052341  0.953801  0.340281  1
  Mg  Mg9  1  0.447659  0.953801  0.840281  1
  Mg  Mg10  1  0.552341  0.546199  0.340281  1
  Mg  Mg11  1  0.947659  0.546199  0.840281  1
  Mg  Mg12  1  0.447659  0.453801  0.659719  1
  Mg  Mg13  1  0.052341  0.453801  0.159719  1
  Mg  Mg14  1  0.947659  0.046199  0.659719  1
  Mg  Mg15  1  0.552341  0.046199  0.159719  1
  P  P16  1  0.274303  0.991899  0.029895  1
  P  P17  1  0.225697  0.991899  0.529895  1
  P  P18  1  0.762033  0.880832  0.223983  1
  P  P19  1  0.737967  0.880832  0.723983  1
  P  P20  1  0.033912  0.761613  0.468504  1
  P  P21  1  0.466088  0.761613  0.968504  1
  P  P22  1  0.966088  0.738387  0.968504  1
  P  P23  1  0.533912  0.738387  0.468504  1
  P  P24  1  0.262033  0.619168  0.223983  1
  P  P25  1  0.237967  0.619168  0.723983  1
  P  P26  1  0.774303  0.508101  0.029895  1
  P  P27  1  0.725697  0.508101  0.529895  1
  P  P28  1  0.225697  0.491899  0.970105  1
  P  P29  1  0.274303  0.491899  0.470105  1
  P  P30  1  0.762033  0.380832  0.276017  1
  P  P31  1  0.737967  0.380832  0.776017  1
  P  P32  1  0.466088  0.261613  0.531496  1
  P  P33  1  0.033912  0.261613  0.031496  1
  P  P34  1  0.966088  0.238387  0.531496  1
  P  P35  1  0.533912  0.238387  0.031496  1
  P  P36  1  0.262033  0.119168  0.276017  1
  P  P37  1  0.237967  0.119168  0.776017  1
  P  P38  1  0.725697  0.008101  0.970105  1
  P  P39  1  0.774303  0.008101  0.470105  1
  H  H40  1  0.745061  0.915777  0.458732  1
  H  H41  1  0.754939  0.915777  0.958732  1
  H  H42  1  0.415074  0.898468  0.533454  1
  H  H43  1  0.084926  0.898468  0.033454  1
  H  H44  1  0.198697  0.898908  0.198416  1
  H  H45  1  0.301303  0.898908  0.698416  1
  H  H46  1  0.481551  0.859453  0.077788  1
  H  H47  1  0.018449  0.859453  0.577788  1
  H  H48  1  0.771557  0.838582  0.140064  1
  H  H49  1  0.728443  0.838582  0.640064  1
  H  H50  1  0.212682  0.817076  0.266672  1
  H  H51  1  0.287318  0.817076  0.766672  1
  H  H52  1  0.847122  0.803371  0.336578  1
  H  H53  1  0.652878  0.803371  0.836578  1
  H  H54  1  0.188200  0.762648  0.469357  1
  H  H55  1  0.311800  0.762648  0.969357  1
  H  H56  1  0.688200  0.737352  0.469357  1
  H  H57  1  0.811800  0.737352  0.969357  1
  H  H58  1  0.347122  0.696629  0.336578  1
  H  H59  1  0.152878  0.696629  0.836578  1
  H  H60  1  0.712682  0.682924  0.266672  1
  H  H61  1  0.787318  0.682924  0.766672  1
  H  H62  1  0.271557  0.661418  0.140064  1
  H  H63  1  0.228443  0.661418  0.640064  1
  H  H64  1  0.981551  0.640547  0.077788  1
  H  H65  1  0.518449  0.640547  0.577788  1
  H  H66  1  0.698697  0.601092  0.198416  1
  H  H67  1  0.801303  0.601092  0.698416  1
  H  H68  1  0.584926  0.601532  0.033454  1
  H  H69  1  0.915074  0.601532  0.533454  1
  H  H70  1  0.245061  0.584223  0.458732  1
  H  H71  1  0.254939  0.584223  0.958732  1
  H  H72  1  0.754939  0.415777  0.541268  1
  H  H73  1  0.745061  0.415777  0.041268  1
  H  H74  1  0.415074  0.398468  0.966546  1
  H  H75  1  0.084926  0.398468  0.466546  1
  H  H76  1  0.301303  0.398908  0.801584  1
  H  H77  1  0.198697  0.398908  0.301584  1
  H  H78  1  0.018449  0.359453  0.922212  1
  H  H79  1  0.481551  0.359453  0.422212  1
  H  H80  1  0.771557  0.338582  0.359936  1
  H  H81  1  0.728443  0.338582  0.859936  1
  H  H82  1  0.287318  0.317076  0.733328  1
  H  H83  1  0.212682  0.317076  0.233328  1
  H  H84  1  0.847122  0.303371  0.163422  1
  H  H85  1  0.652878  0.303371  0.663422  1
  H  H86  1  0.311800  0.262648  0.530643  1
  H  H87  1  0.188200  0.262648  0.030643  1
  H  H88  1  0.811800  0.237352  0.530643  1
  H  H89  1  0.688200  0.237352  0.030643  1
  H  H90  1  0.347122  0.196629  0.163422  1
  H  H91  1  0.152878  0.196629  0.663422  1
  H  H92  1  0.787318  0.182924  0.733328  1
  H  H93  1  0.712682  0.182924  0.233328  1
  H  H94  1  0.271557  0.161418  0.359936  1
  H  H95  1  0.228443  0.161418  0.859936  1
  H  H96  1  0.518449  0.140547  0.922212  1
  H  H97  1  0.981551  0.140547  0.422212  1
  H  H98  1  0.801303  0.101092  0.801584  1
  H  H99  1  0.698697  0.101092  0.301584  1
  H  H100  1  0.915074  0.101532  0.966546  1
  H  H101  1  0.584926  0.101532  0.466546  1
  H  H102  1  0.254939  0.084223  0.541268  1
  H  H103  1  0.245061  0.084223  0.041268  1
  O  O104  1  0.220898  0.968716  0.431279  1
  O  O105  1  0.279102  0.968716  0.931279  1
  O  O106  1  0.409658  0.968524  0.084519  1
  O  O107  1  0.090342  0.968524  0.584519  1
  O  O108  1  0.133902  0.945028  0.074770  1
  O  O109  1  0.366098  0.945028  0.574770  1
  O  O110  1  0.899540  0.935634  0.240393  1
  O  O111  1  0.600460  0.935634  0.740393  1
  O  O112  1  0.617142  0.930428  0.228792  1
  O  O113  1  0.882858  0.930428  0.728792  1
  O  O114  1  0.211903  0.883633  0.261687  1
  O  O115  1  0.288097  0.883633  0.761687  1
  O  O116  1  0.478941  0.834330  0.458834  1
  O  O117  1  0.021059  0.834330  0.958834  1
  O  O118  1  0.984215  0.827243  0.395500  1
  O  O119  1  0.515785  0.827243  0.895500  1
  O  O120  1  0.759028  0.798624  0.294012  1
  O  O121  1  0.740972  0.798624  0.794012  1
  O  O122  1  0.986148  0.795982  0.565162  1
  O  O123  1  0.513852  0.795982  0.065162  1
  O  O124  1  0.486148  0.704018  0.565162  1
  O  O125  1  0.013852  0.704018  0.065162  1
  O  O126  1  0.259028  0.701376  0.294012  1
  O  O127  1  0.240972  0.701376  0.794012  1
  O  O128  1  0.484215  0.672757  0.395500  1
  O  O129  1  0.015785  0.672757  0.895500  1
  O  O130  1  0.978941  0.665670  0.458834  1
  O  O131  1  0.521059  0.665670  0.958834  1
  O  O132  1  0.711903  0.616367  0.261687  1
  O  O133  1  0.788097  0.616367  0.761687  1
  O  O134  1  0.382858  0.569572  0.728792  1
  O  O135  1  0.117142  0.569572  0.228792  1
  O  O136  1  0.399540  0.564366  0.240393  1
  O  O137  1  0.100460  0.564366  0.740393  1
  O  O138  1  0.633902  0.554972  0.074770  1
  O  O139  1  0.866098  0.554972  0.574770  1
  O  O140  1  0.909658  0.531476  0.084519  1
  O  O141  1  0.590342  0.531476  0.584519  1
  O  O142  1  0.720898  0.531284  0.431279  1
  O  O143  1  0.779102  0.531284  0.931279  1
  O  O144  1  0.220898  0.468716  0.068721  1
  O  O145  1  0.279102  0.468716  0.568721  1
  O  O146  1  0.409658  0.468524  0.415481  1
  O  O147  1  0.090342  0.468524  0.915481  1
  O  O148  1  0.366098  0.445028  0.925230  1
  O  O149  1  0.133902  0.445028  0.425230  1
  O  O150  1  0.899540  0.435634  0.259607  1
  O  O151  1  0.600460  0.435634  0.759607  1
  O  O152  1  0.882858  0.430428  0.771208  1
  O  O153  1  0.617142  0.430428  0.271208  1
  O  O154  1  0.288097  0.383633  0.738313  1
  O  O155  1  0.211903  0.383633  0.238313  1
  O  O156  1  0.478941  0.334330  0.041166  1
  O  O157  1  0.021059  0.334330  0.541166  1
  O  O158  1  0.984215  0.327243  0.104500  1
  O  O159  1  0.515785  0.327243  0.604500  1
  O  O160  1  0.759028  0.298624  0.205988  1
  O  O161  1  0.740972  0.298624  0.705988  1
  O  O162  1  0.986148  0.295982  0.934838  1
  O  O163  1  0.513852  0.295982  0.434838  1
  O  O164  1  0.486148  0.204018  0.934838  1
  O  O165  1  0.013852  0.204018  0.434838  1
  O  O166  1  0.259028  0.201376  0.205988  1
  O  O167  1  0.240972  0.201376  0.705988  1
  O  O168  1  0.484215  0.172757  0.104500  1
  O  O169  1  0.015785  0.172757  0.604500  1
  O  O170  1  0.978941  0.165670  0.041166  1
  O  O171  1  0.521059  0.165670  0.541166  1
  O  O172  1  0.788097  0.116367  0.738313  1
  O  O173  1  0.711903  0.116367  0.238313  1
  O  O174  1  0.382858  0.069572  0.771208  1
  O  O175  1  0.117142  0.069572  0.271208  1
  O  O176  1  0.399540  0.064366  0.259607  1
  O  O177  1  0.100460  0.064366  0.759607  1
  O  O178  1  0.866098  0.054972  0.925230  1
  O  O179  1  0.633902  0.054972  0.425230  1
  O  O180  1  0.590342  0.031476  0.915481  1
  O  O181  1  0.909658  0.031476  0.415481  1
  O  O182  1  0.779102  0.031284  0.568721  1
  O  O183  1  0.720898  0.031284  0.068721  1
