# generated using pymatgen
data_LiMn4(BO3)4
_symmetry_space_group_name_H-M   'P 1'
_cell_length_a   6.17642962
_cell_length_b   7.77212556
_cell_length_c   10.36268727
_cell_angle_alpha   91.13179307
_cell_angle_beta   90.33529046
_cell_angle_gamma   96.20729603
_symmetry_Int_Tables_number   1
_chemical_formula_structural   LiMn4(BO3)4
_chemical_formula_sum   'Li2 Mn8 B8 O24'
_cell_volume   494.42140296
_cell_formula_units_Z   2
loop_
 _symmetry_equiv_pos_site_id
 _symmetry_equiv_pos_as_xyz
  1  'x, y, z'
loop_
 _atom_site_type_symbol
 _atom_site_label
 _atom_site_symmetry_multiplicity
 _atom_site_fract_x
 _atom_site_fract_y
 _atom_site_fract_z
 _atom_site_occupancy
  Li  Li0  1  0.368284  0.191090  0.793383  1
  Li  Li1  1  0.631716  0.808910  0.206617  1
  Mn  Mn2  1  0.544949  0.314709  0.531458  1
  Mn  Mn3  1  0.922391  0.174226  0.700081  1
  Mn  Mn4  1  0.077609  0.825774  0.299919  1
  Mn  Mn5  1  0.561665  0.314240  0.056351  1
  Mn  Mn6  1  0.455051  0.685291  0.468542  1
  Mn  Mn7  1  0.958871  0.197600  0.209658  1
  Mn  Mn8  1  0.041129  0.802400  0.790342  1
  Mn  Mn9  1  0.438335  0.685760  0.943649  1
  B  B10  1  0.254627  0.984919  0.555563  1
  B  B11  1  0.747337  0.505338  0.294758  1
  B  B12  1  0.245605  0.003260  0.035770  1
  B  B13  1  0.718123  0.487201  0.787267  1
  B  B14  1  0.252663  0.494662  0.705242  1
  B  B15  1  0.745373  0.015081  0.444437  1
  B  B16  1  0.281877  0.512799  0.212733  1
  B  B17  1  0.754395  0.996740  0.964230  1
  O  O18  1  0.340911  0.485096  0.580661  1
  O  O19  1  0.159541  0.384205  0.273694  1
  O  O20  1  0.656095  0.325685  0.727639  1
  O  O21  1  0.188493  0.004294  0.682983  1
  O  O22  1  0.364428  0.489764  0.088911  1
  O  O23  1  0.340012  0.122031  0.485620  1
  O  O24  1  0.162116  0.355314  0.766667  1
  O  O25  1  0.211717  0.822534  0.492917  1
  O  O26  1  0.714004  0.341087  0.230968  1
  O  O27  1  0.156301  0.023339  0.157853  1
  O  O28  1  0.788283  0.177466  0.507083  1
  O  O29  1  0.357834  0.137182  0.972590  1
  O  O30  1  0.659988  0.877969  0.514380  1
  O  O31  1  0.209077  0.839075  0.974580  1
  O  O32  1  0.811507  0.995706  0.317017  1
  O  O33  1  0.343905  0.674315  0.272361  1
  O  O34  1  0.790923  0.160925  0.025420  1
  O  O35  1  0.840459  0.615795  0.726306  1
  O  O36  1  0.642166  0.862818  0.027410  1
  O  O37  1  0.659089  0.514904  0.419339  1
  O  O38  1  0.843699  0.976661  0.842147  1
  O  O39  1  0.285996  0.658913  0.769032  1
  O  O40  1  0.837884  0.644686  0.233333  1
  O  O41  1  0.635572  0.510236  0.911089  1
