# generated using pymatgen
data_Li6VFe5O12
_symmetry_space_group_name_H-M   'P 1'
_cell_length_a   5.08337140
_cell_length_b   5.08337140
_cell_length_c   10.09719552
_cell_angle_alpha   86.00643176
_cell_angle_beta   93.99356824
_cell_angle_gamma   59.97892570
_symmetry_Int_Tables_number   1
_chemical_formula_structural   Li6VFe5O12
_chemical_formula_sum   'Li6 V1 Fe5 O12'
_cell_volume   223.71015833
_cell_formula_units_Z   1
loop_
 _symmetry_equiv_pos_site_id
 _symmetry_equiv_pos_as_xyz
  1  'x, y, z'
loop_
 _atom_site_type_symbol
 _atom_site_label
 _atom_site_symmetry_multiplicity
 _atom_site_fract_x
 _atom_site_fract_y
 _atom_site_fract_z
 _atom_site_occupancy
  Li  Li0  1  0.045454  0.290983  0.741852  1
  Li  Li1  1  0.717209  0.948832  0.747618  1
  Li  Li2  1  0.608870  0.393273  0.250336  1
  Li  Li3  1  0.393273  0.608870  0.749664  1
  Li  Li4  1  0.948832  0.717209  0.252382  1
  Li  Li5  1  0.290983  0.045454  0.258148  1
  V  V6  1  0.000797  0.000797  0.500000  1
  Fe  Fe7  1  0.499626  0.499626  0.000000  1
  Fe  Fe8  1  0.665414  0.665414  0.500000  1
  Fe  Fe9  1  0.336403  0.336403  0.500000  1
  Fe  Fe10  1  0.833232  0.833232  0.000000  1
  Fe  Fe11  1  0.169715  0.169715  0.000000  1
  O  O12  1  0.855016  0.135751  0.106621  1
  O  O13  1  0.693957  0.308023  0.615793  1
  O  O14  1  0.790646  0.542878  0.890391  1
  O  O15  1  0.471033  0.203271  0.888662  1
  O  O16  1  0.359599  0.973288  0.613795  1
  O  O17  1  0.028086  0.640623  0.613241  1
  O  O18  1  0.973288  0.359599  0.386205  1
  O  O19  1  0.640623  0.028086  0.386759  1
  O  O20  1  0.542878  0.790646  0.109609  1
  O  O21  1  0.203271  0.471033  0.111338  1
  O  O22  1  0.308023  0.693957  0.384207  1
  O  O23  1  0.135751  0.855016  0.893379  1
