# generated using pymatgen
data_Mn3Co3(SbO8)2
_symmetry_space_group_name_H-M   'P 1'
_cell_length_a   5.83081252
_cell_length_b   5.84395475
_cell_length_c   9.27510769
_cell_angle_alpha   90.52796811
_cell_angle_beta   89.89269130
_cell_angle_gamma   119.55007097
_symmetry_Int_Tables_number   1
_chemical_formula_structural   Mn3Co3(SbO8)2
_chemical_formula_sum   'Mn3 Co3 Sb2 O16'
_cell_volume   274.92626014
_cell_formula_units_Z   1
loop_
 _symmetry_equiv_pos_site_id
 _symmetry_equiv_pos_as_xyz
  1  'x, y, z'
loop_
 _atom_site_type_symbol
 _atom_site_label
 _atom_site_symmetry_multiplicity
 _atom_site_fract_x
 _atom_site_fract_y
 _atom_site_fract_z
 _atom_site_occupancy
  Mn  Mn0  1  0.337194  0.171277  0.212531  1
  Mn  Mn1  1  0.170050  0.337485  0.714072  1
  Mn  Mn2  1  0.170905  0.832082  0.713372  1
  Co  Co3  1  0.833195  0.176218  0.215492  1
  Co  Co4  1  0.829028  0.669566  0.206904  1
  Co  Co5  1  0.667153  0.833920  0.709299  1
  Sb  Sb6  1  0.671935  0.334016  0.489668  1
  Sb  Sb7  1  0.337122  0.671395  0.991991  1
  O  O8  1  0.838002  0.166631  0.601539  1
  O  O9  1  0.963865  0.466615  0.336298  1
  O  O10  1  0.663047  0.316303  0.108746  1
  O  O11  1  0.000383  0.016874  0.307131  1
  O  O12  1  0.011803  0.007124  0.810602  1
  O  O13  1  0.840449  0.671090  0.598016  1
  O  O14  1  0.521542  0.037057  0.333574  1
  O  O15  1  0.513688  0.471885  0.340329  1
  O  O16  1  0.675825  0.845001  0.099407  1
  O  O17  1  0.330520  0.162209  0.601464  1
  O  O18  1  0.471138  0.509796  0.840932  1
  O  O19  1  0.469569  0.960355  0.839576  1
  O  O20  1  0.316639  0.655551  0.606494  1
  O  O21  1  0.164185  0.329389  0.100789  1
  O  O22  1  0.035835  0.519989  0.835394  1
  O  O23  1  0.166928  0.837973  0.102097  1
