# generated using pymatgen
data_VCr2Ni3(PO4)6
_symmetry_space_group_name_H-M   'P 1'
_cell_length_a   8.36521282
_cell_length_b   8.36521282
_cell_length_c   8.36521282
_cell_angle_alpha   62.00391106
_cell_angle_beta   62.00391106
_cell_angle_gamma   62.00391106
_symmetry_Int_Tables_number   1
_chemical_formula_structural   VCr2Ni3(PO4)6
_chemical_formula_sum   'V1 Cr2 Ni3 P6 O24'
_cell_volume   432.47202651
_cell_formula_units_Z   1
loop_
 _symmetry_equiv_pos_site_id
 _symmetry_equiv_pos_as_xyz
  1  'x, y, z'
loop_
 _atom_site_type_symbol
 _atom_site_label
 _atom_site_symmetry_multiplicity
 _atom_site_fract_x
 _atom_site_fract_y
 _atom_site_fract_z
 _atom_site_occupancy
  V  V0  1  0.146189  0.146189  0.146189  1
  Cr  Cr1  1  0.999000  0.999000  0.999000  1
  Cr  Cr2  1  0.497713  0.497713  0.497713  1
  Ni  Ni3  1  0.642269  0.642269  0.642269  1
  Ni  Ni4  1  0.855442  0.855442  0.855442  1
  Ni  Ni5  1  0.357554  0.357554  0.357554  1
  P  P6  1  0.952194  0.252661  0.550588  1
  P  P7  1  0.550588  0.952194  0.252661  1
  P  P8  1  0.252661  0.550588  0.952194  1
  P  P9  1  0.749599  0.453071  0.047214  1
  P  P10  1  0.453071  0.047214  0.749599  1
  P  P11  1  0.047214  0.749599  0.453071  1
  O  O12  1  0.505465  0.104128  0.327888  1
  O  O13  1  0.327888  0.505465  0.104128  1
  O  O14  1  0.104128  0.327888  0.505465  1
  O  O15  1  0.937700  0.095737  0.749149  1
  O  O16  1  0.015160  0.173405  0.380707  1
  O  O17  1  0.751917  0.399212  0.548845  1
  O  O18  1  0.749149  0.937700  0.095737  1
  O  O19  1  0.548845  0.751917  0.399212  1
  O  O20  1  0.827856  0.601962  0.008772  1
  O  O21  1  0.399212  0.548845  0.751917  1
  O  O22  1  0.912397  0.244055  0.068297  1
  O  O23  1  0.601962  0.008772  0.827856  1
  O  O24  1  0.380707  0.015160  0.173405  1
  O  O25  1  0.095737  0.749149  0.937700  1
  O  O26  1  0.599899  0.432918  0.252062  1
  O  O27  1  0.173405  0.380707  0.015160  1
  O  O28  1  0.432918  0.252062  0.599899  1
  O  O29  1  0.244055  0.068297  0.912397  1
  O  O30  1  0.252062  0.599899  0.432918  1
  O  O31  1  0.008772  0.827856  0.601962  1
  O  O32  1  0.068297  0.912397  0.244055  1
  O  O33  1  0.893123  0.685512  0.480341  1
  O  O34  1  0.685512  0.480341  0.893123  1
  O  O35  1  0.480341  0.893123  0.685512  1
