# generated using pymatgen
data_V3CrO8
_symmetry_space_group_name_H-M   'P 1'
_cell_length_a   6.38741534
_cell_length_b   6.38741534
_cell_length_c   6.47207470
_cell_angle_alpha   73.60437457
_cell_angle_beta   106.39562543
_cell_angle_gamma   145.09822669
_symmetry_Int_Tables_number   1
_chemical_formula_structural   V3CrO8
_chemical_formula_sum   'V3 Cr1 O8'
_cell_volume   144.31938843
_cell_formula_units_Z   1
loop_
 _symmetry_equiv_pos_site_id
 _symmetry_equiv_pos_as_xyz
  1  'x, y, z'
loop_
 _atom_site_type_symbol
 _atom_site_label
 _atom_site_symmetry_multiplicity
 _atom_site_fract_x
 _atom_site_fract_y
 _atom_site_fract_z
 _atom_site_occupancy
  V  V0  1  0.598674  0.401326  0.702171  1
  V  V1  1  0.399129  0.600871  0.278146  1
  V  V2  1  0.702887  0.297113  0.289281  1
  Cr  Cr3  1  0.293255  0.706745  0.688144  1
  O  O4  1  0.865871  0.134129  0.307625  1
  O  O5  1  0.756518  0.243482  0.642519  1
  O  O6  1  0.641939  0.358061  0.014294  1
  O  O7  1  0.553777  0.446223  0.363712  1
  O  O8  1  0.449118  0.550882  0.644544  1
  O  O9  1  0.361081  0.638919  0.007032  1
  O  O10  1  0.243222  0.756778  0.354425  1
  O  O11  1  0.134529  0.865471  0.708106  1
