# generated using pymatgen
data_LiCu2P3(HO5)2
_symmetry_space_group_name_H-M   'P 1'
_cell_length_a   7.54788467
_cell_length_b   7.54975915
_cell_length_c   8.37546916
_cell_angle_alpha   75.63407501
_cell_angle_beta   71.48459918
_cell_angle_gamma   69.82279017
_symmetry_Int_Tables_number   1
_chemical_formula_structural   LiCu2P3(HO5)2
_chemical_formula_sum   'Li2 Cu4 P6 H4 O20'
_cell_volume   419.61456636
_cell_formula_units_Z   2
loop_
 _symmetry_equiv_pos_site_id
 _symmetry_equiv_pos_as_xyz
  1  'x, y, z'
loop_
 _atom_site_type_symbol
 _atom_site_label
 _atom_site_symmetry_multiplicity
 _atom_site_fract_x
 _atom_site_fract_y
 _atom_site_fract_z
 _atom_site_occupancy
  Li  Li0  1  0.090543  0.301182  0.334280  1
  Li  Li1  1  0.909457  0.698818  0.665720  1
  Cu  Cu2  1  0.576232  0.699108  0.002433  1
  Cu  Cu3  1  0.370847  0.574191  0.406967  1
  Cu  Cu4  1  0.629153  0.425809  0.593033  1
  Cu  Cu5  1  0.423768  0.300892  0.997567  1
  P  P6  1  0.126859  0.704342  0.079557  1
  P  P7  1  0.717170  0.253476  0.288760  1
  P  P8  1  0.736692  0.831070  0.328410  1
  P  P9  1  0.263308  0.168930  0.671590  1
  P  P10  1  0.282830  0.746524  0.711240  1
  P  P11  1  0.873141  0.295658  0.920443  1
  H  H12  1  0.246790  0.015394  0.151284  1
  H  H13  1  0.394360  0.001697  0.246802  1
  H  H14  1  0.605640  0.998303  0.753198  1
  H  H15  1  0.753210  0.984606  0.848716  1
  O  O16  1  0.289416  0.098734  0.196485  1
  O  O17  1  0.146095  0.494070  0.126431  1
  O  O18  1  0.887642  0.223849  0.117372  1
  O  O19  1  0.275481  0.777234  0.109143  1
  O  O20  1  0.541899  0.408013  0.244256  1
  O  O21  1  0.665571  0.056233  0.350554  1
  O  O22  1  0.912003  0.832903  0.156081  1
  O  O23  1  0.185406  0.290709  0.525363  1
  O  O24  1  0.573478  0.800360  0.283670  1
  O  O25  1  0.810483  0.281603  0.414207  1
  O  O26  1  0.189517  0.718397  0.585793  1
  O  O27  1  0.426522  0.199640  0.716330  1
  O  O28  1  0.814594  0.709291  0.474637  1
  O  O29  1  0.087997  0.167097  0.843919  1
  O  O30  1  0.334429  0.943767  0.649446  1
  O  O31  1  0.458101  0.591987  0.755744  1
  O  O32  1  0.724519  0.222766  0.890857  1
  O  O33  1  0.112358  0.776151  0.882628  1
  O  O34  1  0.853905  0.505930  0.873569  1
  O  O35  1  0.710584  0.901266  0.803515  1
