# generated using pymatgen
data_LiFe4(BO3)4
_symmetry_space_group_name_H-M   'P 1'
_cell_length_a   5.25114433
_cell_length_b   5.25391282
_cell_length_c   20.11854378
_cell_angle_alpha   90.89540373
_cell_angle_beta   89.69963230
_cell_angle_gamma   118.88169878
_symmetry_Int_Tables_number   1
_chemical_formula_structural   LiFe4(BO3)4
_chemical_formula_sum   'Li2 Fe8 B8 O24'
_cell_volume   485.95261219
_cell_formula_units_Z   2
loop_
 _symmetry_equiv_pos_site_id
 _symmetry_equiv_pos_as_xyz
  1  'x, y, z'
loop_
 _atom_site_type_symbol
 _atom_site_label
 _atom_site_symmetry_multiplicity
 _atom_site_fract_x
 _atom_site_fract_y
 _atom_site_fract_z
 _atom_site_occupancy
  Li  Li0  1  0.332524  0.355595  0.922327  1
  Li  Li1  1  0.656474  0.656069  0.550219  1
  Fe  Fe2  1  0.319864  0.978364  0.811854  1
  Fe  Fe3  1  0.324747  0.998015  0.310621  1
  Fe  Fe4  1  0.991313  0.684653  0.938593  1
  Fe  Fe5  1  0.007506  0.673333  0.435731  1
  Fe  Fe6  1  0.005643  0.318446  0.560684  1
  Fe  Fe7  1  0.996707  0.325880  0.060449  1
  Fe  Fe8  1  0.668520  0.008299  0.683994  1
  Fe  Fe9  1  0.675666  0.003536  0.185224  1
  B  B10  1  0.659874  0.002629  0.936396  1
  B  B11  1  0.665594  0.002420  0.436769  1
  B  B12  1  0.985994  0.326310  0.812779  1
  B  B13  1  0.994265  0.340441  0.311496  1
  B  B14  1  0.999734  0.662657  0.685076  1
  B  B15  1  0.003922  0.659651  0.186059  1
  B  B16  1  0.337490  0.999578  0.559626  1
  B  B17  1  0.336131  0.996121  0.061949  1
  O  O18  1  0.724529  0.114879  0.784796  1
  O  O19  1  0.729503  0.127064  0.284697  1
  O  O20  1  0.908343  0.254740  0.959501  1
  O  O21  1  0.421756  0.031124  0.913134  1
  O  O22  1  0.883406  0.273406  0.456589  1
  O  O23  1  0.405888  0.976934  0.411737  1
  O  O24  1  0.012768  0.591915  0.832672  1
  O  O25  1  0.349961  0.261773  0.559011  1
  O  O26  1  0.007174  0.600376  0.334412  1
  O  O27  1  0.300421  0.234504  0.058527  1
  O  O28  1  0.210748  0.271033  0.823818  1
  O  O29  1  0.225507  0.294006  0.315033  1
  O  O30  1  0.772642  0.714589  0.676795  1
  O  O31  1  0.773375  0.706739  0.183654  1
  O  O32  1  0.647236  0.740218  0.935533  1
  O  O33  1  0.977701  0.398544  0.665311  1
  O  O34  1  0.698497  0.762457  0.445441  1
  O  O35  1  0.990798  0.400859  0.163080  1
  O  O36  1  0.575533  0.969990  0.582601  1
  O  O37  1  0.598221  0.018373  0.085059  1
  O  O38  1  0.090741  0.744819  0.537070  1
  O  O39  1  0.119158  0.726794  0.040294  1
  O  O40  1  0.264616  0.877832  0.711856  1
  O  O41  1  0.270612  0.873699  0.212571  1
