# generated using pymatgen
data_Mn6O5F7
_symmetry_space_group_name_H-M   'P 1'
_cell_length_a   4.70438919
_cell_length_b   5.75275547
_cell_length_c   15.62619791
_cell_angle_alpha   89.97166983
_cell_angle_beta   89.45680627
_cell_angle_gamma   88.45333326
_symmetry_Int_Tables_number   1
_chemical_formula_structural   Mn6O5F7
_chemical_formula_sum   'Mn12 O10 F14'
_cell_volume   422.72184692
_cell_formula_units_Z   2
loop_
 _symmetry_equiv_pos_site_id
 _symmetry_equiv_pos_as_xyz
  1  'x, y, z'
loop_
 _atom_site_type_symbol
 _atom_site_label
 _atom_site_symmetry_multiplicity
 _atom_site_fract_x
 _atom_site_fract_y
 _atom_site_fract_z
 _atom_site_occupancy
  Mn  Mn0  1  0.947864  0.160050  0.585763  1
  Mn  Mn1  1  0.009178  0.843951  0.752452  1
  Mn  Mn2  1  0.986426  0.174760  0.922032  1
  Mn  Mn3  1  0.003037  0.157637  0.258290  1
  Mn  Mn4  1  0.972647  0.857542  0.421251  1
  Mn  Mn5  1  0.963624  0.861302  0.088602  1
  Mn  Mn6  1  0.499366  0.333551  0.411927  1
  Mn  Mn7  1  0.494757  0.335730  0.075171  1
  Mn  Mn8  1  0.518456  0.346955  0.751454  1
  Mn  Mn9  1  0.480684  0.623498  0.909865  1
  Mn  Mn10  1  0.523181  0.652220  0.575202  1
  Mn  Mn11  1  0.507219  0.656273  0.248089  1
  O  O12  1  0.779593  0.116870  0.697077  1
  O  O13  1  0.781017  0.111338  0.363861  1
  O  O14  1  0.777482  0.123044  0.029490  1
  O  O15  1  0.765308  0.884228  0.526017  1
  O  O16  1  0.784086  0.895589  0.199890  1
  O  O17  1  0.723037  0.389600  0.858430  1
  O  O18  1  0.708604  0.389888  0.520762  1
  O  O19  1  0.283366  0.380493  0.970318  1
  O  O20  1  0.283417  0.604918  0.805160  1
  O  O21  1  0.292643  0.372223  0.304548  1
  F  F22  1  0.748223  0.879163  0.865743  1
  F  F23  1  0.760002  0.615010  0.688941  1
  F  F24  1  0.746714  0.605493  0.356995  1
  F  F25  1  0.739061  0.394657  0.179708  1
  F  F26  1  0.720963  0.627069  0.016318  1
  F  F27  1  0.283920  0.393865  0.642015  1
  F  F28  1  0.248148  0.617150  0.466406  1
  F  F29  1  0.261033  0.613646  0.131985  1
  F  F30  1  0.225635  0.107500  0.813304  1
  F  F31  1  0.219126  0.132135  0.484077  1
  F  F32  1  0.253954  0.883487  0.635131  1
  F  F33  1  0.224684  0.867884  0.973917  1
  F  F34  1  0.240937  0.117205  0.149021  1
  F  F35  1  0.242602  0.874076  0.320787  1
