# generated using pymatgen
data_PuSi3
_symmetry_space_group_name_H-M   'P 1'
_cell_length_a   5.88443522
_cell_length_b   5.88443522
_cell_length_c   4.43025539
_cell_angle_alpha   90.00000000
_cell_angle_beta   90.00000000
_cell_angle_gamma   120.00000000
_symmetry_Int_Tables_number   1
_chemical_formula_structural   PuSi3
_chemical_formula_sum   'Pu2 Si6'
_cell_volume   132.85226607
_cell_formula_units_Z   2
loop_
 _symmetry_equiv_pos_site_id
 _symmetry_equiv_pos_as_xyz
  1  'x, y, z'
loop_
 _atom_site_type_symbol
 _atom_site_label
 _atom_site_symmetry_multiplicity
 _atom_site_fract_x
 _atom_site_fract_y
 _atom_site_fract_z
 _atom_site_occupancy
  Pu  Pu0  1  0.333333  0.666667  0.750000  1
  Pu  Pu1  1  0.666667  0.333333  0.250000  1
  Si  Si2  1  0.144466  0.288931  0.250000  1
  Si  Si3  1  0.711069  0.855534  0.250000  1
  Si  Si4  1  0.144466  0.855534  0.250000  1
  Si  Si5  1  0.855534  0.711069  0.750000  1
  Si  Si6  1  0.288931  0.144466  0.750000  1
  Si  Si7  1  0.855534  0.144466  0.750000  1
