# generated using pymatgen
data_LiFe4(BO3)4
_symmetry_space_group_name_H-M   'P 1'
_cell_length_a   5.31760872
_cell_length_b   9.03237902
_cell_length_c   10.27883746
_cell_angle_alpha   90.00000000
_cell_angle_beta   90.36066736
_cell_angle_gamma   90.00000000
_symmetry_Int_Tables_number   1
_chemical_formula_structural   LiFe4(BO3)4
_chemical_formula_sum   'Li2 Fe8 B8 O24'
_cell_volume   493.68953989
_cell_formula_units_Z   2
loop_
 _symmetry_equiv_pos_site_id
 _symmetry_equiv_pos_as_xyz
  1  'x, y, z'
loop_
 _atom_site_type_symbol
 _atom_site_label
 _atom_site_symmetry_multiplicity
 _atom_site_fract_x
 _atom_site_fract_y
 _atom_site_fract_z
 _atom_site_occupancy
  Li  Li0  1  0.643822  0.992771  0.171170  1
  Li  Li1  1  0.643822  0.007229  0.671170  1
  Fe  Fe2  1  0.862022  0.831809  0.882496  1
  Fe  Fe3  1  0.156888  0.827581  0.628687  1
  Fe  Fe4  1  0.659790  0.659744  0.127111  1
  Fe  Fe5  1  0.336944  0.667877  0.374787  1
  Fe  Fe6  1  0.659790  0.340256  0.627111  1
  Fe  Fe7  1  0.862022  0.168191  0.382496  1
  Fe  Fe8  1  0.336944  0.332123  0.874787  1
  Fe  Fe9  1  0.156888  0.172419  0.128687  1
  B  B10  1  0.830958  0.826068  0.371921  1
  B  B11  1  0.664724  0.676025  0.623717  1
  B  B12  1  0.165140  0.835475  0.133086  1
  B  B13  1  0.351050  0.665522  0.876336  1
  B  B14  1  0.664724  0.323975  0.123717  1
  B  B15  1  0.351050  0.334478  0.376336  1
  B  B16  1  0.830958  0.173932  0.871921  1
  B  B17  1  0.165140  0.164525  0.633086  1
  O  O18  1  0.740231  0.964425  0.355604  1
  O  O19  1  0.913246  0.822092  0.095472  1
  O  O20  1  0.281871  0.971718  0.129766  1
  O  O21  1  0.796168  0.802983  0.665389  1
  O  O22  1  0.693994  0.703417  0.325193  1
  O  O23  1  0.224397  0.784192  0.816928  1
  O  O24  1  0.063840  0.799070  0.432080  1
  O  O25  1  0.577136  0.692134  0.940636  1
  O  O26  1  0.758036  0.538856  0.637082  1
  O  O27  1  0.428060  0.700856  0.567151  1
  O  O28  1  0.298298  0.710782  0.175280  1
  O  O29  1  0.758036  0.461144  0.137082  1
  O  O30  1  0.245216  0.528824  0.872268  1
  O  O31  1  0.693994  0.296583  0.825193  1
  O  O32  1  0.577136  0.307866  0.440636  1
  O  O33  1  0.245216  0.471176  0.372268  1
  O  O34  1  0.428060  0.299144  0.067151  1
  O  O35  1  0.913246  0.177908  0.595472  1
  O  O36  1  0.796168  0.197017  0.165389  1
  O  O37  1  0.298298  0.289218  0.675280  1
  O  O38  1  0.224397  0.215808  0.316928  1
  O  O39  1  0.740231  0.035575  0.855604  1
  O  O40  1  0.063840  0.200930  0.932080  1
  O  O41  1  0.281871  0.028282  0.629766  1
