# generated using pymatgen
data_Cr2S3
_symmetry_space_group_name_H-M   'P 1'
_cell_length_a   5.95376858
_cell_length_b   5.95376858
_cell_length_c   10.94272260
_cell_angle_alpha   90.00000000
_cell_angle_beta   90.00000000
_cell_angle_gamma   120.00000000
_symmetry_Int_Tables_number   1
_chemical_formula_structural   Cr2S3
_chemical_formula_sum   'Cr8 S12'
_cell_volume   335.92313957
_cell_formula_units_Z   4
loop_
 _symmetry_equiv_pos_site_id
 _symmetry_equiv_pos_as_xyz
  1  'x, y, z'
loop_
 _atom_site_type_symbol
 _atom_site_label
 _atom_site_symmetry_multiplicity
 _atom_site_fract_x
 _atom_site_fract_y
 _atom_site_fract_z
 _atom_site_occupancy
  Cr  Cr0  1  0.666667  0.333333  0.742056  1
  Cr  Cr1  1  0.666667  0.333333  0.011229  1
  Cr  Cr2  1  0.333333  0.666667  0.995447  1
  Cr  Cr3  1  0.000000  0.000000  0.251144  1
  Cr  Cr4  1  0.000000  0.000000  0.505010  1
  Cr  Cr5  1  0.666667  0.333333  0.495170  1
  Cr  Cr6  1  0.333333  0.666667  0.499679  1
  Cr  Cr7  1  0.000000  0.000000  0.994911  1
  S  S8  1  0.670795  0.674271  0.379774  1
  S  S9  1  0.346844  0.009558  0.877896  1
  S  S10  1  0.662800  0.002398  0.620560  1
  S  S11  1  0.325729  0.996524  0.379774  1
  S  S12  1  0.990442  0.337286  0.877896  1
  S  S13  1  0.997602  0.660402  0.620560  1
  S  S14  1  0.339598  0.337200  0.620560  1
  S  S15  1  0.007068  0.675979  0.123555  1
  S  S16  1  0.003476  0.329205  0.379774  1
  S  S17  1  0.662714  0.653156  0.877896  1
  S  S18  1  0.324021  0.331088  0.123555  1
  S  S19  1  0.668912  0.992932  0.123555  1
