# generated using pymatgen
data_V2O5
_symmetry_space_group_name_H-M   'P 1'
_cell_length_a   15.33652560
_cell_length_b   4.91047364
_cell_length_c   21.05991651
_cell_angle_alpha   90.00000000
_cell_angle_beta   108.50882414
_cell_angle_gamma   90.00000000
_symmetry_Int_Tables_number   1
_chemical_formula_structural   V2O5
_chemical_formula_sum   'V28 O70'
_cell_volume   1503.97705827
_cell_formula_units_Z   14
loop_
 _symmetry_equiv_pos_site_id
 _symmetry_equiv_pos_as_xyz
  1  'x, y, z'
loop_
 _atom_site_type_symbol
 _atom_site_label
 _atom_site_symmetry_multiplicity
 _atom_site_fract_x
 _atom_site_fract_y
 _atom_site_fract_z
 _atom_site_occupancy
  V  V0  1  0.065906  0.074053  0.654886  1
  V  V1  1  0.143847  0.079976  0.817940  1
  V  V2  1  0.094019  0.889735  0.518856  1
  V  V3  1  0.299180  0.088596  0.971776  1
  V  V4  1  0.065906  0.925947  0.154886  1
  V  V5  1  0.143847  0.920024  0.317940  1
  V  V6  1  0.279753  0.082357  0.611515  1
  V  V7  1  0.403827  0.153326  0.768789  1
  V  V8  1  0.094019  0.110265  0.018856  1
  V  V9  1  0.299180  0.911404  0.471776  1
  V  V10  1  0.508824  0.084237  0.930030  1
  V  V11  1  0.279753  0.917643  0.111515  1
  V  V12  1  0.491176  0.084237  0.569970  1
  V  V13  1  0.596173  0.153326  0.731211  1
  V  V14  1  0.403827  0.846674  0.268789  1
  V  V15  1  0.508824  0.915763  0.430030  1
  V  V16  1  0.720247  0.082357  0.888485  1
  V  V17  1  0.491176  0.915763  0.069970  1
  V  V18  1  0.700820  0.088596  0.528224  1
  V  V19  1  0.905981  0.889735  0.981144  1
  V  V20  1  0.596173  0.846674  0.231211  1
  V  V21  1  0.720247  0.917643  0.388485  1
  V  V22  1  0.856153  0.079976  0.682060  1
  V  V23  1  0.934094  0.074053  0.845114  1
  V  V24  1  0.700820  0.911404  0.028224  1
  V  V25  1  0.905981  0.110265  0.481144  1
  V  V26  1  0.856153  0.920024  0.182060  1
  V  V27  1  0.934094  0.925947  0.345114  1
  O  O28  1  0.004591  0.976409  0.943158  1
  O  O29  1  0.039260  0.966588  0.829181  1
  O  O30  1  0.062427  0.401085  0.654450  1
  O  O31  1  0.141594  0.408547  0.820072  1
  O  O32  1  0.004591  0.023591  0.443158  1
  O  O33  1  0.145632  0.980352  0.735933  1
  O  O34  1  0.240061  0.967136  0.889293  1
  O  O35  1  0.294252  0.415230  0.967238  1
  O  O36  1  0.096971  0.564557  0.510714  1
  O  O37  1  0.160262  0.976706  0.612088  1
  O  O38  1  0.039260  0.033412  0.329181  1
  O  O39  1  0.205910  0.012912  0.511471  1
  O  O40  1  0.419109  0.988742  0.971592  1
  O  O41  1  0.335875  0.383898  0.780505  1
  O  O42  1  0.062427  0.598915  0.154450  1
  O  O43  1  0.141594  0.591453  0.320072  1
  O  O44  1  0.284774  0.408293  0.618621  1
  O  O45  1  0.342509  0.959359  0.694781  1
  O  O46  1  0.145632  0.019648  0.235933  1
  O  O47  1  0.240061  0.032864  0.389293  1
  O  O48  1  0.448761  0.961231  0.846056  1
  O  O49  1  0.294252  0.584770  0.467238  1
  O  O50  1  0.503245  0.410258  0.923170  1
  O  O51  1  0.096971  0.435443  0.010714  1
  O  O52  1  0.160262  0.023294  0.112088  1
  O  O53  1  0.370099  0.990931  0.570090  1
  O  O54  1  0.500000  0.310739  0.750000  1
  O  O55  1  0.205910  0.987088  0.011471  1
  O  O56  1  0.419109  0.011258  0.471592  1
  O  O57  1  0.335875  0.616102  0.280505  1
  O  O58  1  0.629901  0.990931  0.929910  1
  O  O59  1  0.284774  0.591707  0.118621  1
  O  O60  1  0.496755  0.410258  0.576830  1
  O  O61  1  0.551239  0.961231  0.653944  1
  O  O62  1  0.342509  0.040641  0.194781  1
  O  O63  1  0.657491  0.959359  0.805219  1
  O  O64  1  0.448761  0.038769  0.346056  1
  O  O65  1  0.503245  0.589742  0.423170  1
  O  O66  1  0.715226  0.408293  0.881379  1
  O  O67  1  0.370099  0.009069  0.070090  1
  O  O68  1  0.664125  0.383898  0.719495  1
  O  O69  1  0.580891  0.988742  0.528408  1
  O  O70  1  0.794090  0.012912  0.988529  1
  O  O71  1  0.500000  0.689261  0.250000  1
  O  O72  1  0.629901  0.009069  0.429910  1
  O  O73  1  0.839738  0.976706  0.887912  1
  O  O74  1  0.903029  0.564557  0.989286  1
  O  O75  1  0.496755  0.589742  0.076830  1
  O  O76  1  0.705748  0.415230  0.532762  1
  O  O77  1  0.551239  0.038769  0.153944  1
  O  O78  1  0.759939  0.967136  0.610707  1
  O  O79  1  0.854368  0.980352  0.764067  1
  O  O80  1  0.657491  0.040641  0.305219  1
  O  O81  1  0.715226  0.591707  0.381379  1
  O  O82  1  0.858406  0.408547  0.679928  1
  O  O83  1  0.937573  0.401085  0.845550  1
  O  O84  1  0.664125  0.616102  0.219495  1
  O  O85  1  0.580891  0.011258  0.028408  1
  O  O86  1  0.794090  0.987088  0.488529  1
  O  O87  1  0.960740  0.966588  0.670819  1
  O  O88  1  0.839738  0.023294  0.387912  1
  O  O89  1  0.903029  0.435443  0.489286  1
  O  O90  1  0.705748  0.584770  0.032762  1
  O  O91  1  0.759939  0.032864  0.110707  1
  O  O92  1  0.854368  0.019648  0.264067  1
  O  O93  1  0.995409  0.976409  0.556842  1
  O  O94  1  0.858406  0.591453  0.179928  1
  O  O95  1  0.937573  0.598915  0.345550  1
  O  O96  1  0.960740  0.033412  0.170819  1
  O  O97  1  0.995409  0.023591  0.056842  1
