# generated using pymatgen
data_Li4Mn3OF8
_symmetry_space_group_name_H-M   'P 1'
_cell_length_a   5.17256319
_cell_length_b   5.17256319
_cell_length_c   11.66797564
_cell_angle_alpha   78.37232506
_cell_angle_beta   101.62767494
_cell_angle_gamma   146.34979379
_symmetry_Int_Tables_number   1
_chemical_formula_structural   Li4Mn3OF8
_chemical_formula_sum   'Li4 Mn3 O1 F8'
_cell_volume   169.10800110
_cell_formula_units_Z   1
loop_
 _symmetry_equiv_pos_site_id
 _symmetry_equiv_pos_as_xyz
  1  'x, y, z'
loop_
 _atom_site_type_symbol
 _atom_site_label
 _atom_site_symmetry_multiplicity
 _atom_site_fract_x
 _atom_site_fract_y
 _atom_site_fract_z
 _atom_site_occupancy
  Li  Li0  1  0.140474  0.859526  0.548825  1
  Li  Li1  1  0.768578  0.231422  0.126143  1
  Li  Li2  1  0.861685  0.138315  0.444329  1
  Li  Li3  1  0.000063  0.999937  0.002925  1
  Mn  Mn4  1  0.557155  0.442845  0.287718  1
  Mn  Mn5  1  0.247918  0.752082  0.880522  1
  Mn  Mn6  1  0.429400  0.570600  0.717974  1
  O  O7  1  0.875412  0.124588  0.835960  1
  F  F8  1  0.631456  0.368544  0.960311  1
  F  F9  1  0.093445  0.906555  0.710511  1
  F  F10  1  0.124182  0.875818  0.165747  1
  F  F11  1  0.192047  0.807953  0.392650  1
  F  F12  1  0.803745  0.196255  0.594424  1
  F  F13  1  0.899249  0.100751  0.280467  1
  F  F14  1  0.374286  0.625714  0.063621  1
  F  F15  1  0.500898  0.499102  0.487875  1
