# generated using pymatgen
data_VFe2(PO4)3
_symmetry_space_group_name_H-M   'P 1'
_cell_length_a   8.43947494
_cell_length_b   8.43947494
_cell_length_c   8.43947494
_cell_angle_alpha   61.69571800
_cell_angle_beta   61.69571800
_cell_angle_gamma   61.69571800
_symmetry_Int_Tables_number   1
_chemical_formula_structural   VFe2(PO4)3
_chemical_formula_sum   'V2 Fe4 P6 O24'
_cell_volume   441.19812572
_cell_formula_units_Z   2
loop_
 _symmetry_equiv_pos_site_id
 _symmetry_equiv_pos_as_xyz
  1  'x, y, z'
loop_
 _atom_site_type_symbol
 _atom_site_label
 _atom_site_symmetry_multiplicity
 _atom_site_fract_x
 _atom_site_fract_y
 _atom_site_fract_z
 _atom_site_occupancy
  V  V0  1  0.000000  0.000000  0.000000  1
  V  V1  1  0.500000  0.500000  0.500000  1
  Fe  Fe2  1  0.646356  0.646356  0.646356  1
  Fe  Fe3  1  0.146356  0.146356  0.146356  1
  Fe  Fe4  1  0.853644  0.853644  0.853644  1
  Fe  Fe5  1  0.353644  0.353644  0.353644  1
  P  P6  1  0.547257  0.952743  0.250000  1
  P  P7  1  0.250000  0.547257  0.952743  1
  P  P8  1  0.952743  0.250000  0.547257  1
  P  P9  1  0.047257  0.750000  0.452743  1
  P  P10  1  0.750000  0.452743  0.047257  1
  P  P11  1  0.452743  0.047257  0.750000  1
  O  O12  1  0.324325  0.504082  0.106367  1
  O  O13  1  0.106367  0.324325  0.504082  1
  O  O14  1  0.504082  0.106367  0.324325  1
  O  O15  1  0.750054  0.937571  0.095619  1
  O  O16  1  0.393633  0.995918  0.175675  1
  O  O17  1  0.562429  0.749946  0.404381  1
  O  O18  1  0.095619  0.750054  0.937571  1
  O  O19  1  0.404381  0.562429  0.749946  1
  O  O20  1  0.004082  0.824325  0.606367  1
  O  O21  1  0.749946  0.404381  0.562429  1
  O  O22  1  0.062429  0.904381  0.249946  1
  O  O23  1  0.824325  0.606367  0.004082  1
  O  O24  1  0.175675  0.393633  0.995918  1
  O  O25  1  0.937571  0.095619  0.750054  1
  O  O26  1  0.250054  0.595619  0.437571  1
  O  O27  1  0.995918  0.175675  0.393633  1
  O  O28  1  0.595619  0.437571  0.250054  1
  O  O29  1  0.904381  0.249946  0.062429  1
  O  O30  1  0.437571  0.250054  0.595619  1
  O  O31  1  0.606367  0.004082  0.824325  1
  O  O32  1  0.249946  0.062429  0.904381  1
  O  O33  1  0.495918  0.893633  0.675675  1
  O  O34  1  0.893633  0.675675  0.495918  1
  O  O35  1  0.675675  0.495918  0.893633  1
