# generated using pymatgen
data_Li3Mn4(BO3)4
_symmetry_space_group_name_H-M   'P 1'
_cell_length_a   6.19275187
_cell_length_b   9.07713556
_cell_length_c   9.67224316
_cell_angle_alpha   78.03873336
_cell_angle_beta   80.14275150
_cell_angle_gamma   72.81904584
_symmetry_Int_Tables_number   1
_chemical_formula_structural   Li3Mn4(BO3)4
_chemical_formula_sum   'Li6 Mn8 B8 O24'
_cell_volume   504.63056538
_cell_formula_units_Z   2
loop_
 _symmetry_equiv_pos_site_id
 _symmetry_equiv_pos_as_xyz
  1  'x, y, z'
loop_
 _atom_site_type_symbol
 _atom_site_label
 _atom_site_symmetry_multiplicity
 _atom_site_fract_x
 _atom_site_fract_y
 _atom_site_fract_z
 _atom_site_occupancy
  Li  Li0  1  0.319216  0.618734  0.998856  1
  Li  Li1  1  0.413870  0.892702  0.242519  1
  Li  Li2  1  0.185771  0.382167  0.500123  1
  Li  Li3  1  0.814229  0.617833  0.499877  1
  Li  Li4  1  0.586130  0.107298  0.757481  1
  Li  Li5  1  0.680784  0.381266  0.001144  1
  Mn  Mn6  1  0.012051  0.812184  0.223310  1
  Mn  Mn7  1  0.218306  0.707431  0.533380  1
  Mn  Mn8  1  0.735228  0.708884  0.020722  1
  Mn  Mn9  1  0.535324  0.795551  0.716301  1
  Mn  Mn10  1  0.464676  0.204449  0.283699  1
  Mn  Mn11  1  0.264772  0.291116  0.979278  1
  Mn  Mn12  1  0.781694  0.292569  0.466620  1
  Mn  Mn13  1  0.987949  0.187816  0.776690  1
  B  B14  1  0.047399  0.470386  0.232323  1
  B  B15  1  0.466099  0.540741  0.269267  1
  B  B16  1  0.286561  0.960548  0.970379  1
  B  B17  1  0.757598  0.966702  0.477339  1
  B  B18  1  0.242402  0.033298  0.522661  1
  B  B19  1  0.713439  0.039452  0.029621  1
  B  B20  1  0.533901  0.459259  0.730733  1
  B  B21  1  0.952601  0.529614  0.767677  1
  O  O22  1  0.186672  0.965684  0.106788  1
  O  O23  1  0.038765  0.605852  0.131513  1
  O  O24  1  0.254621  0.894142  0.622412  1
  O  O25  1  0.703376  0.900110  0.123686  1
  O  O26  1  0.355075  0.680126  0.319888  1
  O  O27  1  0.186374  0.328380  0.192809  1
  O  O28  1  0.066615  0.526018  0.632835  1
  O  O29  1  0.570564  0.535591  0.132197  1
  O  O30  1  0.652755  0.977078  0.613331  1
  O  O31  1  0.461342  0.398845  0.363364  1
  O  O32  1  0.113769  0.176143  0.560592  1
  O  O33  1  0.396063  0.818392  0.922598  1
  O  O34  1  0.603937  0.181608  0.077402  1
  O  O35  1  0.886231  0.823857  0.439408  1
  O  O36  1  0.538658  0.601155  0.636636  1
  O  O37  1  0.347245  0.022922  0.386669  1
  O  O38  1  0.429436  0.464409  0.867803  1
  O  O39  1  0.933385  0.473982  0.367165  1
  O  O40  1  0.813626  0.671620  0.807191  1
  O  O41  1  0.644925  0.319874  0.680112  1
  O  O42  1  0.296624  0.099890  0.876314  1
  O  O43  1  0.745379  0.105858  0.377588  1
  O  O44  1  0.961235  0.394148  0.868487  1
  O  O45  1  0.813328  0.034316  0.893212  1
