# generated using pymatgen
data_Na5InO4
_symmetry_space_group_name_H-M   'P 1'
_cell_length_a   5.53437023
_cell_length_b   7.46468523
_cell_length_c   7.70607860
_cell_angle_alpha   90.00000000
_cell_angle_beta   90.00000000
_cell_angle_gamma   90.00000000
_symmetry_Int_Tables_number   1
_chemical_formula_structural   Na5InO4
_chemical_formula_sum   'Na10 In2 O8'
_cell_volume   318.35607533
_cell_formula_units_Z   2
loop_
 _symmetry_equiv_pos_site_id
 _symmetry_equiv_pos_as_xyz
  1  'x, y, z'
loop_
 _atom_site_type_symbol
 _atom_site_label
 _atom_site_symmetry_multiplicity
 _atom_site_fract_x
 _atom_site_fract_y
 _atom_site_fract_z
 _atom_site_occupancy
  Na  Na0  1  0.255336  0.739568  0.694196  1
  Na  Na1  1  0.744664  0.239568  0.805804  1
  Na  Na2  1  0.803569  0.000000  0.500000  1
  Na  Na3  1  0.196431  0.500000  0.000000  1
  Na  Na4  1  0.255336  0.260432  0.694196  1
  Na  Na5  1  0.255336  0.739568  0.305804  1
  Na  Na6  1  0.744664  0.760432  0.805804  1
  Na  Na7  1  0.744664  0.239568  0.194196  1
  Na  Na8  1  0.744664  0.760432  0.194196  1
  Na  Na9  1  0.255336  0.260432  0.305804  1
  In  In10  1  0.221616  0.000000  0.000000  1
  In  In11  1  0.778384  0.500000  0.500000  1
  O  O12  1  0.018111  0.000000  0.232668  1
  O  O13  1  0.018111  0.000000  0.767332  1
  O  O14  1  0.422177  0.761680  0.000000  1
  O  O15  1  0.422177  0.238320  0.000000  1
  O  O16  1  0.577823  0.261680  0.500000  1
  O  O17  1  0.577823  0.738320  0.500000  1
  O  O18  1  0.981889  0.500000  0.267332  1
  O  O19  1  0.981889  0.500000  0.732668  1
