# generated using pymatgen
data_DyCoSi2
_symmetry_space_group_name_H-M   'P 1'
_cell_length_a   8.35026047
_cell_length_b   8.35026047
_cell_length_c   3.98624243
_cell_angle_alpha   90.00000000
_cell_angle_beta   90.00000000
_cell_angle_gamma   152.09143718
_symmetry_Int_Tables_number   1
_chemical_formula_structural   DyCoSi2
_chemical_formula_sum   'Dy2 Co2 Si4'
_cell_volume   130.09692513
_cell_formula_units_Z   2
loop_
 _symmetry_equiv_pos_site_id
 _symmetry_equiv_pos_as_xyz
  1  'x, y, z'
loop_
 _atom_site_type_symbol
 _atom_site_label
 _atom_site_symmetry_multiplicity
 _atom_site_fract_x
 _atom_site_fract_y
 _atom_site_fract_z
 _atom_site_occupancy
  Dy  Dy0  1  0.107262  0.892738  0.250000  1
  Dy  Dy1  1  0.892738  0.107262  0.750000  1
  Co  Co2  1  0.320593  0.679407  0.250000  1
  Co  Co3  1  0.679407  0.320593  0.750000  1
  Si  Si4  1  0.249867  0.750133  0.750000  1
  Si  Si5  1  0.750133  0.249867  0.250000  1
  Si  Si6  1  0.542495  0.457505  0.750000  1
  Si  Si7  1  0.457505  0.542495  0.250000  1
