# generated using pymatgen
data_V4(OF3)3
_symmetry_space_group_name_H-M   'P 1'
_cell_length_a   5.26727703
_cell_length_b   5.37148401
_cell_length_c   17.35462387
_cell_angle_alpha   87.66409119
_cell_angle_beta   98.70234711
_cell_angle_gamma   118.92401489
_symmetry_Int_Tables_number   1
_chemical_formula_structural   V4(OF3)3
_chemical_formula_sum   'V8 O6 F18'
_cell_volume   424.52164898
_cell_formula_units_Z   2
loop_
 _symmetry_equiv_pos_site_id
 _symmetry_equiv_pos_as_xyz
  1  'x, y, z'
loop_
 _atom_site_type_symbol
 _atom_site_label
 _atom_site_symmetry_multiplicity
 _atom_site_fract_x
 _atom_site_fract_y
 _atom_site_fract_z
 _atom_site_occupancy
  V  V0  1  0.251079  0.631179  0.874729  1
  V  V1  1  0.249892  0.119764  0.375233  1
  V  V2  1  0.501594  0.231622  0.753560  1
  V  V3  1  0.502526  0.718860  0.252927  1
  V  V4  1  0.732302  0.849765  0.630162  1
  V  V5  1  0.733935  0.392194  0.127446  1
  V  V6  1  0.997594  0.030858  0.996173  1
  V  V7  1  0.998415  0.517383  0.496621  1
  O  O8  1  0.040071  0.306204  0.939775  1
  O  O9  1  0.037578  0.790785  0.439963  1
  O  O10  1  0.458051  0.951198  0.809081  1
  O  O11  1  0.553882  0.576093  0.687021  1
  O  O12  1  0.463108  0.448542  0.310720  1
  O  O13  1  0.591845  0.575357  0.164376  1
  F  F14  1  0.068754  0.833582  0.914377  1
  F  F15  1  0.079560  0.060946  0.709645  1
  F  F16  1  0.068515  0.320827  0.414891  1
  F  F17  1  0.080437  0.537793  0.209523  1
  F  F18  1  0.580066  0.793366  0.965114  1
  F  F19  1  0.432474  0.425353  0.835848  1
  F  F20  1  0.428248  0.919076  0.334437  1
  F  F21  1  0.426007  0.699633  0.537971  1
  F  F22  1  0.571645  0.090087  0.660235  1
  F  F23  1  0.571221  0.281549  0.463151  1
  F  F24  1  0.422919  0.204597  0.038582  1
  F  F25  1  0.936238  0.670878  0.588923  1
  F  F26  1  0.920962  0.461032  0.785380  1
  F  F27  1  0.927499  0.963939  0.287389  1
  F  F28  1  0.535457  0.051330  0.187229  1
  F  F29  1  0.967063  0.693203  0.059824  1
  F  F30  1  0.953031  0.183363  0.562356  1
  F  F31  1  0.918032  0.169644  0.087340  1
