# generated using pymatgen
data_Nd3MnAlS7
_symmetry_space_group_name_H-M   'P 1'
_cell_length_a   10.00314535
_cell_length_b   10.00314535
_cell_length_c   6.11143258
_cell_angle_alpha   90.00000000
_cell_angle_beta   90.00000000
_cell_angle_gamma   120.00000000
_symmetry_Int_Tables_number   1
_chemical_formula_structural   Nd3MnAlS7
_chemical_formula_sum   'Nd6 Mn2 Al2 S14'
_cell_volume   529.59858456
_cell_formula_units_Z   2
loop_
 _symmetry_equiv_pos_site_id
 _symmetry_equiv_pos_as_xyz
  1  'x, y, z'
loop_
 _atom_site_type_symbol
 _atom_site_label
 _atom_site_symmetry_multiplicity
 _atom_site_fract_x
 _atom_site_fract_y
 _atom_site_fract_z
 _atom_site_occupancy
  Nd  Nd0  1  0.146559  0.376721  0.241284  1
  Nd  Nd1  1  0.853441  0.623279  0.741284  1
  Nd  Nd2  1  0.623279  0.769838  0.241284  1
  Nd  Nd3  1  0.230162  0.853441  0.241284  1
  Nd  Nd4  1  0.769838  0.146559  0.741284  1
  Nd  Nd5  1  0.376721  0.230162  0.741284  1
  Mn  Mn6  1  0.000000  0.000000  0.020910  1
  Mn  Mn7  1  0.000000  0.000000  0.520910  1
  Al  Al8  1  0.333333  0.666667  0.662956  1
  Al  Al9  1  0.666667  0.333333  0.162956  1
  S  S10  1  0.333333  0.666667  0.028216  1
  S  S11  1  0.666667  0.333333  0.528216  1
  S  S12  1  0.095257  0.239441  0.794662  1
  S  S13  1  0.904743  0.760559  0.294662  1
  S  S14  1  0.760559  0.855816  0.794662  1
  S  S15  1  0.144184  0.904743  0.794662  1
  S  S16  1  0.855816  0.095257  0.294662  1
  S  S17  1  0.239441  0.144184  0.294662  1
  S  S18  1  0.423202  0.520851  0.514759  1
  S  S19  1  0.576798  0.479149  0.014759  1
  S  S20  1  0.479149  0.902351  0.514759  1
  S  S21  1  0.097649  0.576798  0.514759  1
  S  S22  1  0.902351  0.423202  0.014759  1
  S  S23  1  0.520851  0.097649  0.014759  1
