# generated using pymatgen
data_LiV2P4(HO8)2
_symmetry_space_group_name_H-M   'P 1'
_cell_length_a   7.37450480
_cell_length_b   9.27979431
_cell_length_c   9.28741063
_cell_angle_alpha   116.54007930
_cell_angle_beta   97.56868486
_cell_angle_gamma   97.51863045
_symmetry_Int_Tables_number   1
_chemical_formula_structural   LiV2P4(HO8)2
_chemical_formula_sum   'Li2 V4 P8 H4 O32'
_cell_volume   550.59781299
_cell_formula_units_Z   2
loop_
 _symmetry_equiv_pos_site_id
 _symmetry_equiv_pos_as_xyz
  1  'x, y, z'
loop_
 _atom_site_type_symbol
 _atom_site_label
 _atom_site_symmetry_multiplicity
 _atom_site_fract_x
 _atom_site_fract_y
 _atom_site_fract_z
 _atom_site_occupancy
  Li  Li0  1  0.148869  0.865839  0.736929  1
  Li  Li1  1  0.347882  0.262832  0.632191  1
  V  V2  1  0.997159  0.499538  0.000046  1
  V  V3  1  0.509330  0.502150  0.492383  1
  V  V4  1  0.508550  0.002768  0.007580  1
  V  V5  1  0.986852  0.997402  0.494093  1
  P  P6  1  0.765371  0.889971  0.739593  1
  P  P7  1  0.236669  0.608476  0.764999  1
  P  P8  1  0.266982  0.736633  0.388469  1
  P  P9  1  0.261431  0.235071  0.889273  1
  P  P10  1  0.731856  0.263048  0.611744  1
  P  P11  1  0.726603  0.755566  0.110343  1
  P  P12  1  0.777772  0.387271  0.239951  1
  P  P13  1  0.234918  0.113307  0.263609  1
  H  H14  1  0.487431  0.974097  0.483462  1
  H  H15  1  0.492917  0.486448  0.993580  1
  H  H16  1  0.011274  0.510955  0.518866  1
  H  H17  1  0.012219  0.015312  0.025384  1
  O  O18  1  0.341671  0.790820  0.848106  1
  O  O19  1  0.177160  0.563600  0.896362  1
  O  O20  1  0.944428  0.905005  0.850960  1
  O  O21  1  0.867258  0.664361  0.005866  1
  O  O22  1  0.143318  0.830541  0.505361  1
  O  O23  1  0.060242  0.601357  0.649610  1
  O  O24  1  0.813264  0.934553  0.606165  1
  O  O25  1  0.649435  0.704419  0.645684  1
  O  O26  1  0.447047  0.848895  0.400430  1
  O  O27  1  0.437517  0.350360  0.899773  1
  O  O28  1  0.363194  0.002609  0.171163  1
  O  O29  1  0.360234  0.492861  0.668424  1
  O  O30  1  0.325644  0.602617  0.431738  1
  O  O31  1  0.309856  0.097948  0.927144  1
  O  O32  1  0.154051  0.151924  0.705553  1
  O  O33  1  0.152146  0.648603  0.208659  1
  O  O34  1  0.847955  0.353595  0.794323  1
  O  O35  1  0.845450  0.848151  0.292148  1
  O  O36  1  0.681922  0.887963  0.064212  1
  O  O37  1  0.679029  0.400045  0.568160  1
  O  O38  1  0.640182  0.496969  0.331909  1
  O  O39  1  0.630454  0.994197  0.829733  1
  O  O40  1  0.552294  0.152107  0.594684  1
  O  O41  1  0.555020  0.637318  0.092255  1
  O  O42  1  0.351381  0.296365  0.351170  1
  O  O43  1  0.187122  0.078940  0.403359  1
  O  O44  1  0.950223  0.409058  0.358511  1
  O  O45  1  0.862995  0.174150  0.502614  1
  O  O46  1  0.132071  0.332122  0.999092  1
  O  O47  1  0.052317  0.097519  0.151660  1
  O  O48  1  0.823269  0.433097  0.104592  1
  O  O49  1  0.657766  0.208507  0.150818  1
