# generated using pymatgen
data_Li3Mn4(BO3)4
_symmetry_space_group_name_H-M   'P 1'
_cell_length_a   7.90520212
_cell_length_b   8.29255709
_cell_length_c   9.19324478
_cell_angle_alpha   66.60314732
_cell_angle_beta   65.76537557
_cell_angle_gamma   80.33208910
_symmetry_Int_Tables_number   1
_chemical_formula_structural   Li3Mn4(BO3)4
_chemical_formula_sum   'Li6 Mn8 B8 O24'
_cell_volume   504.35183309
_cell_formula_units_Z   2
loop_
 _symmetry_equiv_pos_site_id
 _symmetry_equiv_pos_as_xyz
  1  'x, y, z'
loop_
 _atom_site_type_symbol
 _atom_site_label
 _atom_site_symmetry_multiplicity
 _atom_site_fract_x
 _atom_site_fract_y
 _atom_site_fract_z
 _atom_site_occupancy
  Li  Li0  1  0.866097  0.951462  0.151973  1
  Li  Li1  1  0.133903  0.048538  0.848027  1
  Li  Li2  1  0.361432  0.793231  0.363676  1
  Li  Li3  1  0.638568  0.206769  0.636324  1
  Li  Li4  1  0.360457  0.452062  0.153778  1
  Li  Li5  1  0.639543  0.547938  0.846222  1
  Mn  Mn6  1  0.827720  0.921789  0.497777  1
  Mn  Mn7  1  0.926759  0.324078  0.016507  1
  Mn  Mn8  1  0.423916  0.830489  0.995139  1
  Mn  Mn9  1  0.172280  0.078211  0.502223  1
  Mn  Mn10  1  0.316437  0.423245  0.508540  1
  Mn  Mn11  1  0.073241  0.675922  0.983493  1
  Mn  Mn12  1  0.576084  0.169511  0.004861  1
  Mn  Mn13  1  0.683563  0.576755  0.491460  1
  B  B14  1  0.830986  0.941319  0.827463  1
  B  B15  1  0.919535  0.321203  0.676943  1
  B  B16  1  0.425816  0.826427  0.659414  1
  B  B17  1  0.169014  0.058681  0.172537  1
  B  B18  1  0.335494  0.422822  0.835926  1
  B  B19  1  0.080465  0.678797  0.323057  1
  B  B20  1  0.574184  0.173573  0.340586  1
  B  B21  1  0.664506  0.577178  0.164074  1
  O  O22  1  0.902376  0.900319  0.952659  1
  O  O23  1  0.821088  0.349003  0.831401  1
  O  O24  1  0.935040  0.922623  0.671391  1
  O  O25  1  0.905616  0.764375  0.344701  1
  O  O26  1  0.846615  0.361761  0.556023  1
  O  O27  1  0.094384  0.235625  0.655299  1
  O  O28  1  0.844959  0.510269  0.130861  1
  O  O29  1  0.311025  0.848801  0.815599  1
  O  O30  1  0.064960  0.077377  0.328609  1
  O  O31  1  0.155041  0.489731  0.869139  1
  O  O32  1  0.366544  0.874674  0.528567  1
  O  O33  1  0.097624  0.099681  0.047341  1
  O  O34  1  0.413965  0.393904  0.953566  1
  O  O35  1  0.153385  0.638239  0.443977  1
  O  O36  1  0.347589  0.987217  0.148287  1
  O  O37  1  0.436834  0.393097  0.683200  1
  O  O38  1  0.178912  0.650997  0.168599  1
  O  O39  1  0.652411  0.012783  0.851713  1
  O  O40  1  0.399468  0.256997  0.352064  1
  O  O41  1  0.633456  0.125326  0.471433  1
  O  O42  1  0.600532  0.743003  0.647936  1
  O  O43  1  0.563166  0.606903  0.316800  1
  O  O44  1  0.688975  0.151199  0.184401  1
  O  O45  1  0.586035  0.606096  0.046434  1
