# generated using pymatgen
data_Co2OF3
_symmetry_space_group_name_H-M   'P 1'
_cell_length_a   4.71620061
_cell_length_b   5.68490557
_cell_length_c   13.30007125
_cell_angle_alpha   78.72763281
_cell_angle_beta   89.55685039
_cell_angle_gamma   89.46919743
_symmetry_Int_Tables_number   1
_chemical_formula_structural   Co2OF3
_chemical_formula_sum   'Co10 O5 F15'
_cell_volume   349.68991996
_cell_formula_units_Z   5
loop_
 _symmetry_equiv_pos_site_id
 _symmetry_equiv_pos_as_xyz
  1  'x, y, z'
loop_
 _atom_site_type_symbol
 _atom_site_label
 _atom_site_symmetry_multiplicity
 _atom_site_fract_x
 _atom_site_fract_y
 _atom_site_fract_z
 _atom_site_occupancy
  Co  Co0  1  0.476835  0.517145  0.003624  1
  Co  Co1  1  0.502834  0.303843  0.602897  1
  Co  Co2  1  0.556945  0.682993  0.399571  1
  Co  Co3  1  0.461296  0.902897  0.782723  1
  Co  Co4  1  0.504839  0.096936  0.200531  1
  Co  Co5  1  0.990732  0.781618  0.593730  1
  Co  Co6  1  0.015332  0.599595  0.197953  1
  Co  Co7  1  0.959730  0.399467  0.817531  1
  Co  Co8  1  0.000359  0.215397  0.399814  1
  Co  Co9  1  0.996977  0.995113  0.997912  1
  O  O10  1  0.789356  0.334301  0.939162  1
  O  O11  1  0.817706  0.523556  0.337877  1
  O  O12  1  0.716154  0.618188  0.543187  1
  O  O13  1  0.293754  0.965801  0.660352  1
  O  O14  1  0.201934  0.680447  0.057833  1
  F  F15  1  0.796843  0.713318  0.741220  1
  F  F16  1  0.806630  0.916908  0.139097  1
  F  F17  1  0.812636  0.114692  0.541464  1
  F  F18  1  0.702428  0.018402  0.342932  1
  F  F19  1  0.678584  0.831685  0.927619  1
  F  F20  1  0.696651  0.419709  0.138613  1
  F  F21  1  0.694956  0.208332  0.743374  1
  F  F22  1  0.317371  0.778101  0.265181  1
  F  F23  1  0.301208  0.182829  0.059219  1
  F  F24  1  0.292270  0.590541  0.857154  1
  F  F25  1  0.316824  0.388282  0.461318  1
  F  F26  1  0.192340  0.092346  0.856637  1
  F  F27  1  0.216279  0.878771  0.459376  1
  F  F28  1  0.203786  0.278202  0.260017  1
  F  F29  1  0.186412  0.470583  0.672081  1
