# generated using pymatgen
data_V6O11F
_symmetry_space_group_name_H-M   'P 1'
_cell_length_a   5.47920469
_cell_length_b   5.47920469
_cell_length_c   7.23141331
_cell_angle_alpha   71.74157306
_cell_angle_beta   108.25842694
_cell_angle_gamma   108.45737339
_symmetry_Int_Tables_number   1
_chemical_formula_structural   V6O11F
_chemical_formula_sum   'V6 O11 F1'
_cell_volume   189.95883213
_cell_formula_units_Z   1
loop_
 _symmetry_equiv_pos_site_id
 _symmetry_equiv_pos_as_xyz
  1  'x, y, z'
loop_
 _atom_site_type_symbol
 _atom_site_label
 _atom_site_symmetry_multiplicity
 _atom_site_fract_x
 _atom_site_fract_y
 _atom_site_fract_z
 _atom_site_occupancy
  V  V0  1  0.326731  0.673269  0.830484  1
  V  V1  1  0.660624  0.339376  0.668311  1
  V  V2  1  0.348848  0.651152  0.330257  1
  V  V3  1  0.669229  0.330771  0.158188  1
  V  V4  1  0.995506  0.004494  0.510736  1
  V  V5  1  0.998334  0.001666  0.985555  1
  O  O6  1  0.975053  0.627138  0.674114  1
  O  O7  1  0.623698  0.965834  0.328274  1
  O  O8  1  0.762735  0.237265  0.968073  1
  O  O9  1  0.440937  0.559063  0.634972  1
  O  O10  1  0.893005  0.106995  0.703168  1
  O  O11  1  0.230866  0.769134  0.033369  1
  O  O12  1  0.572538  0.427462  0.368384  1
  O  O13  1  0.700231  0.706442  0.001764  1
  O  O14  1  0.372862  0.024947  0.674114  1
  O  O15  1  0.034166  0.376302  0.328274  1
  O  O16  1  0.293558  0.299769  0.001764  1
  F  F17  1  0.101080  0.898920  0.300201  1
