# generated using pymatgen
data_LiFe4(BO3)4
_symmetry_space_group_name_H-M   'P 1'
_cell_length_a   5.23343477
_cell_length_b   9.15704953
_cell_length_c   10.08004731
_cell_angle_alpha   89.90292190
_cell_angle_beta   89.40948241
_cell_angle_gamma   89.06187864
_symmetry_Int_Tables_number   1
_chemical_formula_structural   LiFe4(BO3)4
_chemical_formula_sum   'Li2 Fe8 B8 O24'
_cell_volume   482.97334200
_cell_formula_units_Z   2
loop_
 _symmetry_equiv_pos_site_id
 _symmetry_equiv_pos_as_xyz
  1  'x, y, z'
loop_
 _atom_site_type_symbol
 _atom_site_label
 _atom_site_symmetry_multiplicity
 _atom_site_fract_x
 _atom_site_fract_y
 _atom_site_fract_z
 _atom_site_occupancy
  Li  Li0  1  0.335417  0.323173  0.898145  1
  Li  Li1  1  0.658051  0.677364  0.652824  1
  Fe  Fe2  1  0.148952  0.847252  0.627792  1
  Fe  Fe3  1  0.170707  0.502014  0.130774  1
  Fe  Fe4  1  0.321392  0.987565  0.876669  1
  Fe  Fe5  1  0.334766  0.665652  0.380166  1
  Fe  Fe6  1  0.675771  0.333452  0.629038  1
  Fe  Fe7  1  0.672186  0.999422  0.126846  1
  Fe  Fe8  1  0.835225  0.160074  0.377049  1
  Fe  Fe9  1  0.823108  0.507351  0.882987  1
  B  B10  1  0.173373  0.504166  0.627954  1
  B  B11  1  0.171228  0.828722  0.128150  1
  B  B12  1  0.339887  0.998699  0.373144  1
  B  B13  1  0.324744  0.665863  0.873330  1
  B  B14  1  0.648662  0.998820  0.627936  1
  B  B15  1  0.668588  0.330325  0.127178  1
  B  B16  1  0.841390  0.497253  0.381164  1
  B  B17  1  0.828042  0.167381  0.880000  1
  O  O18  1  0.095262  0.504338  0.334867  1
  O  O19  1  0.088085  0.155609  0.882656  1
  O  O20  1  0.184737  0.792731  0.842618  1
  O  O21  1  0.255011  0.866737  0.422115  1
  O  O22  1  0.183804  0.118652  0.370746  1
  O  O23  1  0.198574  0.544015  0.928807  1
  O  O24  1  0.326508  0.384726  0.650813  1
  O  O25  1  0.330880  0.936678  0.076170  1
  O  O26  1  0.278299  0.633937  0.580410  1
  O  O27  1  0.287194  0.699635  0.175671  1
  O  O28  1  0.410354  0.344266  0.108068  1
  O  O29  1  0.405501  0.005756  0.686331  1
  O  O30  1  0.594288  0.005034  0.327546  1
  O  O31  1  0.576768  0.659051  0.843926  1
  O  O32  1  0.704883  0.293148  0.829395  1
  O  O33  1  0.753501  0.362240  0.429115  1
  O  O34  1  0.684793  0.615759  0.382831  1
  O  O35  1  0.669407  0.058748  0.930225  1
  O  O36  1  0.826489  0.444291  0.089762  1
  O  O37  1  0.779451  0.871759  0.620452  1
  O  O38  1  0.747113  0.130153  0.575610  1
  O  O39  1  0.780342  0.201483  0.174992  1
  O  O40  1  0.915259  0.848960  0.131052  1
  O  O41  1  0.910654  0.501448  0.658602  1
