# generated using pymatgen
data_La3NiBr3
_symmetry_space_group_name_H-M   'P 1'
_cell_length_a   10.41581176
_cell_length_b   10.41581176
_cell_length_c   10.41581176
_cell_angle_alpha   108.12128053
_cell_angle_beta   108.12128053
_cell_angle_gamma   112.20620854
_symmetry_Int_Tables_number   1
_chemical_formula_structural   La3NiBr3
_chemical_formula_sum   'La12 Ni4 Br12'
_cell_volume   868.38192966
_cell_formula_units_Z   4
loop_
 _symmetry_equiv_pos_site_id
 _symmetry_equiv_pos_as_xyz
  1  'x, y, z'
loop_
 _atom_site_type_symbol
 _atom_site_label
 _atom_site_symmetry_multiplicity
 _atom_site_fract_x
 _atom_site_fract_y
 _atom_site_fract_z
 _atom_site_occupancy
  La  La0  1  0.387571  0.612429  0.000000  1
  La  La1  1  0.612429  0.387571  1.000000  1
  La  La2  1  0.637571  0.137571  0.275143  1
  La  La3  1  0.862429  0.362429  0.724857  1
  La  La4  1  0.407628  0.402222  0.262995  1
  La  La5  1  0.139227  0.144634  0.737005  1
  La  La6  1  0.110773  0.347778  0.505406  1
  La  La7  1  0.842372  0.605366  0.494594  1
  La  La8  1  0.597778  0.592372  0.737005  1
  La  La9  1  0.855366  0.860773  0.262995  1
  La  La10  1  0.652222  0.889227  0.494594  1
  La  La11  1  0.394634  0.157628  0.505406  1
  Ni  Ni12  1  0.626962  0.626962  0.253923  1
  Ni  Ni13  1  0.373038  0.373038  0.746077  1
  Ni  Ni14  1  0.876962  0.123038  0.500000  1
  Ni  Ni15  1  0.623038  0.376962  0.500000  1
  Br  Br16  1  0.366040  0.633960  0.500000  1
  Br  Br17  1  0.133960  0.866040  0.500000  1
  Br  Br18  1  0.116040  0.116040  0.232080  1
  Br  Br19  1  0.883960  0.883960  0.767920  1
  Br  Br20  1  0.891565  0.636661  0.000953  1
  Br  Br21  1  0.635708  0.890611  0.999047  1
  Br  Br22  1  0.614292  0.113339  0.754903  1
  Br  Br23  1  0.358435  0.859389  0.245097  1
  Br  Br24  1  0.363339  0.108435  0.999047  1
  Br  Br25  1  0.109389  0.364292  0.000953  1
  Br  Br26  1  0.886661  0.385708  0.245097  1
  Br  Br27  1  0.140611  0.641565  0.754903  1
