# generated using pymatgen
data_Li4Mn5Ni(PO4)6
_symmetry_space_group_name_H-M   'P 1'
_cell_length_a   8.49488621
_cell_length_b   8.59762365
_cell_length_c   8.60665883
_cell_angle_alpha   62.13432713
_cell_angle_beta   63.03357172
_cell_angle_gamma   63.82682634
_symmetry_Int_Tables_number   1
_chemical_formula_structural   Li4Mn5Ni(PO4)6
_chemical_formula_sum   'Li4 Mn5 Ni1 P6 O24'
_cell_volume   473.88029369
_cell_formula_units_Z   1
loop_
 _symmetry_equiv_pos_site_id
 _symmetry_equiv_pos_as_xyz
  1  'x, y, z'
loop_
 _atom_site_type_symbol
 _atom_site_label
 _atom_site_symmetry_multiplicity
 _atom_site_fract_x
 _atom_site_fract_y
 _atom_site_fract_z
 _atom_site_occupancy
  Li  Li0  1  0.749669  0.140767  0.353121  1
  Li  Li1  1  0.235521  0.847471  0.658813  1
  Li  Li2  1  0.653883  0.241661  0.846179  1
  Li  Li3  1  0.851717  0.650782  0.240270  1
  Mn  Mn4  1  0.007781  0.002030  0.992674  1
  Mn  Mn5  1  0.356447  0.353835  0.352731  1
  Mn  Mn6  1  0.489621  0.510144  0.500869  1
  Mn  Mn7  1  0.147362  0.143482  0.148768  1
  Mn  Mn8  1  0.651597  0.659661  0.653190  1
  Ni  Ni9  1  0.847528  0.849404  0.852993  1
  P  P10  1  0.059678  0.752165  0.448375  1
  P  P11  1  0.439133  0.057360  0.751821  1
  P  P12  1  0.746626  0.444202  0.054274  1
  P  P13  1  0.247648  0.540185  0.961336  1
  P  P14  1  0.560065  0.952157  0.249257  1
  P  P15  1  0.951881  0.247722  0.540617  1
  O  O16  1  0.456502  0.903690  0.696544  1
  O  O17  1  0.681233  0.471647  0.902713  1
  O  O18  1  0.905930  0.690806  0.466772  1
  O  O19  1  0.062973  0.922877  0.259032  1
  O  O20  1  0.021616  0.811353  0.608038  1
  O  O21  1  0.249654  0.607116  0.424386  1
  O  O22  1  0.250691  0.080177  0.908120  1
  O  O23  1  0.432668  0.245896  0.583336  1
  O  O24  1  0.176231  0.384455  0.005494  1
  O  O25  1  0.592364  0.419980  0.252851  1
  O  O26  1  0.095041  0.731753  0.943664  1
  O  O27  1  0.394916  0.006112  0.190287  1
  O  O28  1  0.603103  0.029067  0.803818  1
  O  O29  1  0.892261  0.249548  0.081947  1
  O  O30  1  0.395812  0.563032  0.765154  1
  O  O31  1  0.807961  0.600162  0.026079  1
  O  O32  1  0.575346  0.755094  0.400043  1
  O  O33  1  0.749933  0.929391  0.088394  1
  O  O34  1  0.760717  0.397470  0.568836  1
  O  O35  1  0.969074  0.186419  0.390777  1
  O  O36  1  0.942874  0.090360  0.734638  1
  O  O37  1  0.117155  0.310889  0.488381  1
  O  O38  1  0.319262  0.501523  0.114033  1
  O  O39  1  0.550521  0.095154  0.314375  1
