# generated using pymatgen
data_Li8CrFe7(PO4)12
_symmetry_space_group_name_H-M   'P 1'
_cell_length_a   8.65589885
_cell_length_b   8.78300361
_cell_length_c   12.21580639
_cell_angle_alpha   89.80513986
_cell_angle_beta   89.97854543
_cell_angle_gamma   89.96742134
_symmetry_Int_Tables_number   1
_chemical_formula_structural   Li8CrFe7(PO4)12
_chemical_formula_sum   'Li8 Cr1 Fe7 P12 O48'
_cell_volume   928.69854006
_cell_formula_units_Z   1
loop_
 _symmetry_equiv_pos_site_id
 _symmetry_equiv_pos_as_xyz
  1  'x, y, z'
loop_
 _atom_site_type_symbol
 _atom_site_label
 _atom_site_symmetry_multiplicity
 _atom_site_fract_x
 _atom_site_fract_y
 _atom_site_fract_z
 _atom_site_occupancy
  Li  Li0  1  0.783038  0.277916  0.181848  1
  Li  Li1  1  0.782301  0.223185  0.817686  1
  Li  Li2  1  0.717265  0.777200  0.318921  1
  Li  Li3  1  0.717199  0.722322  0.682127  1
  Li  Li4  1  0.282936  0.277015  0.317803  1
  Li  Li5  1  0.283251  0.219790  0.680612  1
  Li  Li6  1  0.216734  0.777363  0.182412  1
  Li  Li7  1  0.217109  0.722497  0.818563  1
  Cr  Cr8  1  0.248543  0.539216  0.614164  1
  Fe  Fe9  1  0.751882  0.040872  0.613178  1
  Fe  Fe10  1  0.751060  0.458844  0.386854  1
  Fe  Fe11  1  0.749135  0.959199  0.112900  1
  Fe  Fe12  1  0.749066  0.541083  0.887508  1
  Fe  Fe13  1  0.250407  0.459405  0.111501  1
  Fe  Fe14  1  0.251326  0.039994  0.887600  1
  Fe  Fe15  1  0.248823  0.960660  0.386936  1
  P  P16  1  0.962652  0.748844  0.500111  1
  P  P17  1  0.539161  0.250118  0.999959  1
  P  P18  1  0.460779  0.749880  0.000569  1
  P  P19  1  0.040314  0.252555  0.500450  1
  P  P20  1  0.894695  0.607281  0.146980  1
  P  P21  1  0.894205  0.892942  0.852998  1
  P  P22  1  0.603492  0.395835  0.646478  1
  P  P23  1  0.606137  0.107213  0.353472  1
  P  P24  1  0.394486  0.890318  0.645459  1
  P  P25  1  0.393672  0.606320  0.355524  1
  P  P26  1  0.105709  0.393019  0.850266  1
  P  P27  1  0.105465  0.107615  0.146806  1
  O  O28  1  0.943977  0.359752  0.429278  1
  O  O29  1  0.944646  0.145175  0.572908  1
  O  O30  1  0.926531  0.104794  0.156118  1
  O  O31  1  0.927472  0.396479  0.841495  1
  O  O32  1  0.857861  0.834012  0.582783  1
  O  O33  1  0.854049  0.661051  0.421968  1
  O  O34  1  0.844554  0.565888  0.030663  1
  O  O35  1  0.844099  0.934079  0.969400  1
  O  O36  1  0.838282  0.767857  0.179967  1
  O  O37  1  0.838111  0.732120  0.820266  1
  O  O38  1  0.825531  0.486257  0.226098  1
  O  O39  1  0.825410  0.014558  0.773840  1
  O  O40  1  0.674098  0.985984  0.274414  1
  O  O41  1  0.671635  0.515667  0.725219  1
  O  O42  1  0.655087  0.233262  0.680207  1
  O  O43  1  0.662626  0.267987  0.320301  1
  O  O44  1  0.650939  0.434007  0.529086  1
  O  O45  1  0.656920  0.065208  0.469947  1
  O  O46  1  0.647332  0.162536  0.079948  1
  O  O47  1  0.647600  0.337731  0.920403  1
  O  O48  1  0.573073  0.891883  0.655782  1
  O  O49  1  0.571843  0.604372  0.347136  1
  O  O50  1  0.556440  0.857603  0.071449  1
  O  O51  1  0.556206  0.642273  0.929026  1
  O  O52  1  0.443182  0.357320  0.071535  1
  O  O53  1  0.443362  0.142799  0.928578  1
  O  O54  1  0.421917  0.401506  0.654313  1
  O  O55  1  0.427163  0.104787  0.343832  1
  O  O56  1  0.352924  0.662225  0.080676  1
  O  O57  1  0.352367  0.836814  0.920330  1
  O  O58  1  0.344306  0.933071  0.529667  1
  O  O59  1  0.342168  0.566476  0.473638  1
  O  O60  1  0.336315  0.767011  0.322249  1
  O  O61  1  0.336268  0.728148  0.677730  1
  O  O62  1  0.323876  0.484904  0.277842  1
  O  O63  1  0.325063  0.009286  0.725480  1
  O  O64  1  0.174209  0.986598  0.226182  1
  O  O65  1  0.174134  0.514392  0.768264  1
  O  O66  1  0.161848  0.268685  0.179014  1
  O  O67  1  0.164229  0.232605  0.818175  1
  O  O68  1  0.159151  0.438664  0.964993  1
  O  O69  1  0.155754  0.066453  0.030421  1
  O  O70  1  0.149783  0.340705  0.579442  1
  O  O71  1  0.149686  0.164742  0.421844  1
  O  O72  1  0.073286  0.895457  0.843844  1
  O  O73  1  0.073800  0.604126  0.155716  1
  O  O74  1  0.058004  0.856722  0.429208  1
  O  O75  1  0.062036  0.637467  0.569640  1
