# generated using pymatgen
data_Li7Fe(O2F)2
_symmetry_space_group_name_H-M   'P 1'
_cell_length_a   5.52704745
_cell_length_b   5.89510386
_cell_length_c   9.94473096
_cell_angle_alpha   105.44390191
_cell_angle_beta   88.29325451
_cell_angle_gamma   117.46102566
_symmetry_Int_Tables_number   1
_chemical_formula_structural   Li7Fe(O2F)2
_chemical_formula_sum   'Li14 Fe2 O8 F4'
_cell_volume   275.48936201
_cell_formula_units_Z   2
loop_
 _symmetry_equiv_pos_site_id
 _symmetry_equiv_pos_as_xyz
  1  'x, y, z'
loop_
 _atom_site_type_symbol
 _atom_site_label
 _atom_site_symmetry_multiplicity
 _atom_site_fract_x
 _atom_site_fract_y
 _atom_site_fract_z
 _atom_site_occupancy
  Li  Li0  1  0.024248  0.928164  0.773271  1
  Li  Li1  1  0.496763  0.395259  0.248555  1
  Li  Li2  1  0.534995  0.056898  0.617972  1
  Li  Li3  1  0.968019  0.442175  0.880940  1
  Li  Li4  1  0.023571  0.738398  0.557809  1
  Li  Li5  1  0.536423  0.330985  0.043681  1
  Li  Li6  1  0.985717  0.656405  0.323574  1
  Li  Li7  1  0.467734  0.721659  0.942448  1
  Li  Li8  1  0.967861  0.212189  0.459442  1
  Li  Li9  1  0.008788  0.524722  0.121574  1
  Li  Li10  1  0.495466  0.995216  0.385134  1
  Li  Li11  1  0.437683  0.531494  0.731565  1
  Li  Li12  1  0.027422  0.120116  0.249885  1
  Li  Li13  1  0.521034  0.851130  0.175742  1
  Fe  Fe14  1  0.060818  0.982422  0.023369  1
  Fe  Fe15  1  0.495951  0.545372  0.456077  1
  O  O16  1  0.301193  0.052834  0.196689  1
  O  O17  1  0.168406  0.773788  0.961203  1
  O  O18  1  0.675727  0.328364  0.446416  1
  O  O19  1  0.735281  0.670562  0.111662  1
  O  O20  1  0.242849  0.325138  0.900235  1
  O  O21  1  0.330941  0.690065  0.536343  1
  O  O22  1  0.214464  0.462997  0.298100  1
  O  O23  1  0.786532  0.876753  0.380303  1
  F  F24  1  0.207212  0.098834  0.611094  1
  F  F25  1  0.798727  0.569375  0.708338  1
  F  F26  1  0.805533  0.204854  0.066026  1
  F  F27  1  0.680647  0.913833  0.792552  1
