# generated using pymatgen
data_Fe10O9F11
_symmetry_space_group_name_H-M   'P 1'
_cell_length_a   4.75999876
_cell_length_b   4.75999876
_cell_length_c   15.49677625
_cell_angle_alpha   89.85512279
_cell_angle_beta   90.14487721
_cell_angle_gamma   87.78946946
_symmetry_Int_Tables_number   1
_chemical_formula_structural   Fe10O9F11
_chemical_formula_sum   'Fe10 O9 F11'
_cell_volume   350.85595360
_cell_formula_units_Z   1
loop_
 _symmetry_equiv_pos_site_id
 _symmetry_equiv_pos_as_xyz
  1  'x, y, z'
loop_
 _atom_site_type_symbol
 _atom_site_label
 _atom_site_symmetry_multiplicity
 _atom_site_fract_x
 _atom_site_fract_y
 _atom_site_fract_z
 _atom_site_occupancy
  Fe  Fe0  1  0.006059  0.015338  0.302856  1
  Fe  Fe1  1  0.035863  0.980406  0.091072  1
  Fe  Fe2  1  0.980406  0.035863  0.908928  1
  Fe  Fe3  1  0.015338  0.006059  0.697144  1
  Fe  Fe4  1  0.024571  0.024571  0.500000  1
  Fe  Fe5  1  0.497572  0.519305  0.202338  1
  Fe  Fe6  1  0.519305  0.497572  0.797662  1
  Fe  Fe7  1  0.476593  0.476593  0.000000  1
  Fe  Fe8  1  0.476837  0.476491  0.612152  1
  Fe  Fe9  1  0.476491  0.476837  0.387848  1
  O  O10  1  0.200570  0.200570  0.000000  1
  O  O11  1  0.193505  0.188954  0.598345  1
  O  O12  1  0.188954  0.193505  0.401655  1
  O  O13  1  0.697317  0.304102  0.296732  1
  O  O14  1  0.678535  0.323116  0.899241  1
  O  O15  1  0.703931  0.297531  0.701332  1
  O  O16  1  0.297531  0.703931  0.298668  1
  O  O17  1  0.323116  0.678535  0.100759  1
  O  O18  1  0.304102  0.697316  0.703268  1
  F  F19  1  0.201376  0.194494  0.200385  1
  F  F20  1  0.194494  0.201376  0.799615  1
  F  F21  1  0.709847  0.288000  0.102031  1
  F  F22  1  0.686317  0.305982  0.499894  1
  F  F23  1  0.288000  0.709847  0.897969  1
  F  F24  1  0.305982  0.686317  0.500106  1
  F  F25  1  0.813728  0.809807  0.200330  1
  F  F26  1  0.809807  0.813728  0.799670  1
  F  F27  1  0.786170  0.786170  0.000000  1
  F  F28  1  0.801746  0.805936  0.404871  1
  F  F29  1  0.805936  0.801746  0.595129  1
