# generated using pymatgen
data_Nb3V(PO4)6
_symmetry_space_group_name_H-M   'P 1'
_cell_length_a   8.98631427
_cell_length_b   8.98631427
_cell_length_c   8.98631427
_cell_angle_alpha   58.60076344
_cell_angle_beta   58.60076344
_cell_angle_gamma   58.60076344
_symmetry_Int_Tables_number   1
_chemical_formula_structural   Nb3V(PO4)6
_chemical_formula_sum   'Nb3 V1 P6 O24'
_cell_volume   496.71742823
_cell_formula_units_Z   1
loop_
 _symmetry_equiv_pos_site_id
 _symmetry_equiv_pos_as_xyz
  1  'x, y, z'
loop_
 _atom_site_type_symbol
 _atom_site_label
 _atom_site_symmetry_multiplicity
 _atom_site_fract_x
 _atom_site_fract_y
 _atom_site_fract_z
 _atom_site_occupancy
  Nb  Nb0  1  0.859353  0.859353  0.859353  1
  Nb  Nb1  1  0.641534  0.641534  0.641534  1
  Nb  Nb2  1  0.359982  0.359982  0.359982  1
  V  V3  1  0.142214  0.142214  0.142214  1
  P  P4  1  0.249446  0.529513  0.967172  1
  P  P5  1  0.967172  0.249446  0.529513  1
  P  P6  1  0.529513  0.967172  0.249446  1
  P  P7  1  0.460413  0.034887  0.756545  1
  P  P8  1  0.034887  0.756545  0.460413  1
  P  P9  1  0.756545  0.460413  0.034887  1
  O  O10  1  0.716371  0.499703  0.866943  1
  O  O11  1  0.499703  0.866943  0.716371  1
  O  O12  1  0.080428  0.711352  0.936978  1
  O  O13  1  0.866943  0.716371  0.499703  1
  O  O14  1  0.419684  0.565826  0.789598  1
  O  O15  1  0.220958  0.366423  0.991269  1
  O  O16  1  0.936978  0.080428  0.711352  1
  O  O17  1  0.789598  0.419684  0.565826  1
  O  O18  1  0.565826  0.789598  0.419684  1
  O  O19  1  0.635751  0.003004  0.779523  1
  O  O20  1  0.286371  0.061255  0.920955  1
  O  O21  1  0.003004  0.779523  0.635751  1
  O  O22  1  0.991269  0.220958  0.366423  1
  O  O23  1  0.711352  0.936978  0.080428  1
  O  O24  1  0.366423  0.991269  0.220958  1
  O  O25  1  0.439115  0.209730  0.578929  1
  O  O26  1  0.209730  0.578929  0.439115  1
  O  O27  1  0.061255  0.920955  0.286371  1
  O  O28  1  0.779523  0.635751  0.003004  1
  O  O29  1  0.578929  0.439115  0.209730  1
  O  O30  1  0.134207  0.281322  0.503246  1
  O  O31  1  0.920955  0.286371  0.061255  1
  O  O32  1  0.503246  0.134207  0.281322  1
  O  O33  1  0.281322  0.503246  0.134207  1
