# generated using pymatgen
data_Li4Mn5Sn(PO4)6
_symmetry_space_group_name_H-M   'P 1'
_cell_length_a   8.65459682
_cell_length_b   8.71264965
_cell_length_c   8.71580610
_cell_angle_alpha   62.74117439
_cell_angle_beta   63.04627784
_cell_angle_gamma   62.96334702
_symmetry_Int_Tables_number   1
_chemical_formula_structural   Li4Mn5Sn(PO4)6
_chemical_formula_sum   'Li4 Mn5 Sn1 P6 O24'
_cell_volume   494.82456636
_cell_formula_units_Z   1
loop_
 _symmetry_equiv_pos_site_id
 _symmetry_equiv_pos_as_xyz
  1  'x, y, z'
loop_
 _atom_site_type_symbol
 _atom_site_label
 _atom_site_symmetry_multiplicity
 _atom_site_fract_x
 _atom_site_fract_y
 _atom_site_fract_z
 _atom_site_occupancy
  Li  Li0  1  0.251755  0.648139  0.849798  1
  Li  Li1  1  0.706791  0.355829  0.149927  1
  Li  Li2  1  0.357450  0.146329  0.710820  1
  Li  Li3  1  0.148280  0.703879  0.359164  1
  Mn  Mn4  1  0.981161  0.000088  0.995530  1
  Mn  Mn5  1  0.654101  0.652321  0.646511  1
  Mn  Mn6  1  0.512506  0.500479  0.495639  1
  Mn  Mn7  1  0.846923  0.848855  0.846556  1
  Mn  Mn8  1  0.345447  0.340948  0.346928  1
  Sn  Sn9  1  0.149288  0.148705  0.154777  1
  P  P10  1  0.943809  0.559385  0.255357  1
  P  P11  1  0.558296  0.253886  0.944067  1
  P  P12  1  0.254177  0.942105  0.561289  1
  P  P13  1  0.753954  0.056344  0.445064  1
  P  P14  1  0.435142  0.751037  0.052845  1
  P  P15  1  0.066313  0.448311  0.756630  1
  O  O16  1  0.531014  0.319198  0.094612  1
  O  O17  1  0.323976  0.089856  0.532064  1
  O  O18  1  0.090509  0.525344  0.331282  1
  O  O19  1  0.948225  0.735422  0.089418  1
  O  O20  1  0.991286  0.394456  0.193271  1
  O  O21  1  0.753550  0.573592  0.396456  1
  O  O22  1  0.742783  0.100866  0.923544  1
  O  O23  1  0.548061  0.410623  0.763850  1
  O  O24  1  0.829092  0.018811  0.589307  1
  O  O25  1  0.395743  0.749874  0.575960  1
  O  O26  1  0.902669  0.090924  0.242420  1
  O  O27  1  0.593257  0.815930  0.996772  1
  O  O28  1  0.397286  0.182034  0.997247  1
  O  O29  1  0.101941  0.923256  0.748377  1
  O  O30  1  0.601839  0.248190  0.423382  1
  O  O31  1  0.190159  0.988155  0.399075  1
  O  O32  1  0.423127  0.599275  0.244211  1
  O  O33  1  0.237948  0.904486  0.093482  1
  O  O34  1  0.252903  0.418469  0.600136  1
  O  O35  1  0.056067  0.588891  0.822364  1
  O  O36  1  0.089388  0.247157  0.906659  1
  O  O37  1  0.898807  0.494247  0.710129  1
  O  O38  1  0.696750  0.903778  0.471411  1
  O  O39  1  0.438219  0.697525  0.906668  1
