# generated using pymatgen
data_Mn4O7F
_symmetry_space_group_name_H-M   'P 1'
_cell_length_a   4.96120055
_cell_length_b   5.48504766
_cell_length_c   10.19702364
_cell_angle_alpha   90.00000000
_cell_angle_beta   118.94350525
_cell_angle_gamma   90.00000000
_symmetry_Int_Tables_number   1
_chemical_formula_structural   Mn4O7F
_chemical_formula_sum   'Mn8 O14 F2'
_cell_volume   242.82699507
_cell_formula_units_Z   2
loop_
 _symmetry_equiv_pos_site_id
 _symmetry_equiv_pos_as_xyz
  1  'x, y, z'
loop_
 _atom_site_type_symbol
 _atom_site_label
 _atom_site_symmetry_multiplicity
 _atom_site_fract_x
 _atom_site_fract_y
 _atom_site_fract_z
 _atom_site_occupancy
  Mn  Mn0  1  0.249084  0.834207  0.994797  1
  Mn  Mn1  1  0.727790  0.143816  0.995382  1
  Mn  Mn2  1  0.518126  0.632093  0.758114  1
  Mn  Mn3  1  0.998402  0.349065  0.745459  1
  Mn  Mn4  1  0.249084  0.165793  0.494797  1
  Mn  Mn5  1  0.727790  0.856184  0.495382  1
  Mn  Mn6  1  0.998402  0.650935  0.245459  1
  Mn  Mn7  1  0.518126  0.367907  0.258114  1
  O  O8  1  0.807748  0.880436  0.885781  1
  O  O9  1  0.294864  0.107513  0.881384  1
  O  O10  1  0.290652  0.601246  0.864651  1
  O  O11  1  0.792741  0.381175  0.868006  1
  O  O12  1  0.713168  0.613040  0.634219  1
  O  O13  1  0.219274  0.387806  0.635359  1
  O  O14  1  0.687647  0.112233  0.614408  1
  O  O15  1  0.294864  0.892487  0.381384  1
  O  O16  1  0.807748  0.119564  0.385781  1
  O  O17  1  0.792741  0.618825  0.368006  1
  O  O18  1  0.290652  0.398754  0.364651  1
  O  O19  1  0.219274  0.612194  0.135359  1
  O  O20  1  0.713168  0.386960  0.134219  1
  O  O21  1  0.687647  0.887767  0.114408  1
  F  F22  1  0.200501  0.878691  0.622441  1
  F  F23  1  0.200501  0.121309  0.122441  1
