# generated using pymatgen
data_SiO2
_symmetry_space_group_name_H-M   'P 1'
_cell_length_a   7.23990834
_cell_length_b   7.23990834
_cell_length_c   7.23990834
_cell_angle_alpha   90.00000000
_cell_angle_beta   90.00000000
_cell_angle_gamma   90.00000000
_symmetry_Int_Tables_number   1
_chemical_formula_structural   SiO2
_chemical_formula_sum   'Si8 O16'
_cell_volume   379.48901039
_cell_formula_units_Z   8
loop_
 _symmetry_equiv_pos_site_id
 _symmetry_equiv_pos_as_xyz
  1  'x, y, z'
loop_
 _atom_site_type_symbol
 _atom_site_label
 _atom_site_symmetry_multiplicity
 _atom_site_fract_x
 _atom_site_fract_y
 _atom_site_fract_z
 _atom_site_occupancy
  Si  Si0  1  0.981840  0.518160  0.481840  1
  Si  Si1  1  0.518160  0.481840  0.981840  1
  Si  Si2  1  0.481840  0.981840  0.518160  1
  Si  Si3  1  0.018160  0.018160  0.018160  1
  Si  Si4  1  0.724158  0.775842  0.224158  1
  Si  Si5  1  0.775842  0.224158  0.724158  1
  Si  Si6  1  0.224158  0.724158  0.775842  1
  Si  Si7  1  0.275842  0.275842  0.275842  1
  O  O8  1  0.860429  0.343891  0.554352  1
  O  O9  1  0.360429  0.156109  0.445648  1
  O  O10  1  0.139571  0.843891  0.945648  1
  O  O11  1  0.156109  0.445648  0.360429  1
  O  O12  1  0.945648  0.139571  0.843891  1
  O  O13  1  0.445648  0.360429  0.156109  1
  O  O14  1  0.343891  0.554352  0.860429  1
  O  O15  1  0.554352  0.860429  0.343891  1
  O  O16  1  0.146943  0.146943  0.146943  1
  O  O17  1  0.353057  0.853057  0.646943  1
  O  O18  1  0.646943  0.353057  0.853057  1
  O  O19  1  0.853057  0.646943  0.353057  1
  O  O20  1  0.639571  0.656109  0.054352  1
  O  O21  1  0.054352  0.639571  0.656109  1
  O  O22  1  0.656109  0.054352  0.639571  1
  O  O23  1  0.843891  0.945648  0.139571  1
