# generated using pymatgen
data_Li4Co5O12
_symmetry_space_group_name_H-M   'P 1'
_cell_length_a   4.88299951
_cell_length_b   4.89705212
_cell_length_c   9.91153072
_cell_angle_alpha   94.92260929
_cell_angle_beta   94.61605461
_cell_angle_gamma   119.86343411
_symmetry_Int_Tables_number   1
_chemical_formula_structural   Li4Co5O12
_chemical_formula_sum   'Li4 Co5 O12'
_cell_volume   202.68563268
_cell_formula_units_Z   1
loop_
 _symmetry_equiv_pos_site_id
 _symmetry_equiv_pos_as_xyz
  1  'x, y, z'
loop_
 _atom_site_type_symbol
 _atom_site_label
 _atom_site_symmetry_multiplicity
 _atom_site_fract_x
 _atom_site_fract_y
 _atom_site_fract_z
 _atom_site_occupancy
  Li  Li0  1  0.163495  0.346894  0.009637  1
  Li  Li1  1  0.000760  0.505785  0.490000  1
  Li  Li2  1  0.653191  0.836993  0.489023  1
  Li  Li3  1  0.255859  0.761953  0.249010  1
  Co  Co4  1  0.921411  0.073219  0.251374  1
  Co  Co5  1  0.745072  0.253530  0.750767  1
  Co  Co6  1  0.414400  0.586494  0.750156  1
  Co  Co7  1  0.589207  0.414466  0.249119  1
  Co  Co8  1  0.082200  0.920245  0.751156  1
  O  O9  1  0.039009  0.217127  0.649439  1
  O  O10  1  0.295977  0.427131  0.356127  1
  O  O11  1  0.652555  0.136685  0.359218  1
  O  O12  1  0.579953  0.698673  0.146734  1
  O  O13  1  0.786918  0.961003  0.848103  1
  O  O14  1  0.854459  0.344881  0.151067  1
  O  O15  1  0.109686  0.614177  0.848666  1
  O  O16  1  0.212451  0.079038  0.146221  1
  O  O17  1  0.441261  0.282718  0.848311  1
  O  O18  1  0.379531  0.881093  0.647368  1
  O  O19  1  0.722892  0.558732  0.648724  1
  O  O20  1  0.921312  0.777563  0.359778  1
