# generated using pymatgen
data_TiNiO3
_symmetry_space_group_name_H-M   'P 1'
_cell_length_a   5.50930414
_cell_length_b   5.50930414
_cell_length_c   5.50930414
_cell_angle_alpha   54.85176158
_cell_angle_beta   54.85176158
_cell_angle_gamma   54.85176158
_symmetry_Int_Tables_number   1
_chemical_formula_structural   TiNiO3
_chemical_formula_sum   'Ti2 Ni2 O6'
_cell_volume   104.07080181
_cell_formula_units_Z   2
loop_
 _symmetry_equiv_pos_site_id
 _symmetry_equiv_pos_as_xyz
  1  'x, y, z'
loop_
 _atom_site_type_symbol
 _atom_site_label
 _atom_site_symmetry_multiplicity
 _atom_site_fract_x
 _atom_site_fract_y
 _atom_site_fract_z
 _atom_site_occupancy
  Ti  Ti0  1  0.146424  0.146424  0.146424  1
  Ti  Ti1  1  0.646424  0.646424  0.646424  1
  Ni  Ni2  1  0.354278  0.354278  0.354278  1
  Ni  Ni3  1  0.854278  0.854278  0.854278  1
  O  O4  1  0.050876  0.431865  0.777861  1
  O  O5  1  0.550876  0.277861  0.931865  1
  O  O6  1  0.277861  0.931865  0.550876  1
  O  O7  1  0.777861  0.050876  0.431865  1
  O  O8  1  0.431865  0.777861  0.050876  1
  O  O9  1  0.931865  0.550876  0.277861  1
