# generated using pymatgen
data_Mn7F16
_symmetry_space_group_name_H-M   'P 1'
_cell_length_a   9.64520415
_cell_length_b   9.64520415
_cell_length_c   9.64520415
_cell_angle_alpha   39.78830654
_cell_angle_beta   39.78830654
_cell_angle_gamma   39.78830654
_symmetry_Int_Tables_number   1
_chemical_formula_structural   Mn7F16
_chemical_formula_sum   'Mn7 F16'
_cell_volume   330.97244263
_cell_formula_units_Z   1
loop_
 _symmetry_equiv_pos_site_id
 _symmetry_equiv_pos_as_xyz
  1  'x, y, z'
loop_
 _atom_site_type_symbol
 _atom_site_label
 _atom_site_symmetry_multiplicity
 _atom_site_fract_x
 _atom_site_fract_y
 _atom_site_fract_z
 _atom_site_occupancy
  Mn  Mn0  1  0.480583  0.746797  0.111785  1
  Mn  Mn1  1  0.253203  0.888215  0.519417  1
  Mn  Mn2  1  0.888215  0.519417  0.253203  1
  Mn  Mn3  1  0.111785  0.480583  0.746797  1
  Mn  Mn4  1  0.746797  0.111785  0.480583  1
  Mn  Mn5  1  0.519417  0.253203  0.888215  1
  Mn  Mn6  1  0.000000  0.000000  0.000000  1
  F  F7  1  0.236234  0.236234  0.236234  1
  F  F8  1  0.280198  0.823094  0.017305  1
  F  F9  1  0.596822  0.842080  0.147916  1
  F  F10  1  0.157920  0.852084  0.403178  1
  F  F11  1  0.982695  0.719802  0.176906  1
  F  F12  1  0.176906  0.982695  0.719802  1
  F  F13  1  0.852084  0.403178  0.157920  1
  F  F14  1  0.575278  0.575278  0.575278  1
  F  F15  1  0.424722  0.424722  0.424722  1
  F  F16  1  0.147916  0.596822  0.842080  1
  F  F17  1  0.823094  0.017305  0.280198  1
  F  F18  1  0.017305  0.280198  0.823094  1
  F  F19  1  0.842080  0.147916  0.596822  1
  F  F20  1  0.403178  0.157920  0.852084  1
  F  F21  1  0.719802  0.176906  0.982695  1
  F  F22  1  0.763766  0.763766  0.763766  1
