# generated using pymatgen
data_Nd5(FeB3)2
_symmetry_space_group_name_H-M   'P 1'
_cell_length_a   8.73069695
_cell_length_b   8.73069695
_cell_length_c   8.73069695
_cell_angle_alpha   36.62507012
_cell_angle_beta   36.62507012
_cell_angle_gamma   36.62507012
_symmetry_Int_Tables_number   1
_chemical_formula_structural   Nd5(FeB3)2
_chemical_formula_sum   'Nd5 Fe2 B6'
_cell_volume   212.08152227
_cell_formula_units_Z   1
loop_
 _symmetry_equiv_pos_site_id
 _symmetry_equiv_pos_as_xyz
  1  'x, y, z'
loop_
 _atom_site_type_symbol
 _atom_site_label
 _atom_site_symmetry_multiplicity
 _atom_site_fract_x
 _atom_site_fract_y
 _atom_site_fract_z
 _atom_site_occupancy
  Nd  Nd0  1  0.417127  0.417127  0.417127  1
  Nd  Nd1  1  0.582873  0.582873  0.582873  1
  Nd  Nd2  1  0.250974  0.250974  0.250974  1
  Nd  Nd3  1  0.749026  0.749026  0.749026  1
  Nd  Nd4  1  0.000000  0.000000  0.000000  1
  Fe  Fe5  1  0.122295  0.122295  0.122295  1
  Fe  Fe6  1  0.877705  0.877705  0.877705  1
  B  B7  1  0.500000  0.833348  0.166652  1
  B  B8  1  0.833348  0.166652  0.500000  1
  B  B9  1  0.166652  0.500000  0.833348  1
  B  B10  1  0.500000  0.166652  0.833348  1
  B  B11  1  0.166652  0.833348  0.500000  1
  B  B12  1  0.833348  0.500000  0.166652  1
