# generated using pymatgen
data_LiCrSiO4
_symmetry_space_group_name_H-M   'P 1'
_cell_length_a   4.74156827
_cell_length_b   6.15546778
_cell_length_c   10.28580504
_cell_angle_alpha   90.00000000
_cell_angle_beta   90.00000000
_cell_angle_gamma   90.00000000
_symmetry_Int_Tables_number   1
_chemical_formula_structural   LiCrSiO4
_chemical_formula_sum   'Li4 Cr4 Si4 O16'
_cell_volume   300.20737614
_cell_formula_units_Z   4
loop_
 _symmetry_equiv_pos_site_id
 _symmetry_equiv_pos_as_xyz
  1  'x, y, z'
loop_
 _atom_site_type_symbol
 _atom_site_label
 _atom_site_symmetry_multiplicity
 _atom_site_fract_x
 _atom_site_fract_y
 _atom_site_fract_z
 _atom_site_occupancy
  Li  Li0  1  0.017566  0.750000  0.784726  1
  Li  Li1  1  0.482434  0.750000  0.284726  1
  Li  Li2  1  0.517566  0.250000  0.715274  1
  Li  Li3  1  0.982434  0.250000  0.215274  1
  Cr  Cr4  1  0.000000  0.000000  0.500000  1
  Cr  Cr5  1  0.500000  0.000000  0.000000  1
  Cr  Cr6  1  0.500000  0.500000  0.000000  1
  Cr  Cr7  1  0.000000  0.500000  0.500000  1
  Si  Si8  1  0.081014  0.250000  0.909374  1
  Si  Si9  1  0.418986  0.250000  0.409374  1
  Si  Si10  1  0.581014  0.750000  0.590626  1
  Si  Si11  1  0.918986  0.750000  0.090626  1
  O  O12  1  0.250389  0.250000  0.056928  1
  O  O13  1  0.221972  0.029587  0.849818  1
  O  O14  1  0.221972  0.470413  0.849818  1
  O  O15  1  0.234473  0.750000  0.580658  1
  O  O16  1  0.265527  0.750000  0.080658  1
  O  O17  1  0.278028  0.470413  0.349818  1
  O  O18  1  0.278028  0.029587  0.349818  1
  O  O19  1  0.249611  0.250000  0.556928  1
  O  O20  1  0.750389  0.750000  0.443072  1
  O  O21  1  0.721972  0.529587  0.650182  1
  O  O22  1  0.721972  0.970413  0.650182  1
  O  O23  1  0.734473  0.250000  0.919342  1
  O  O24  1  0.765527  0.250000  0.419342  1
  O  O25  1  0.778028  0.970413  0.150182  1
  O  O26  1  0.778028  0.529587  0.150182  1
  O  O27  1  0.749611  0.750000  0.943072  1
