# generated using pymatgen
data_Mn6O5F7
_symmetry_space_group_name_H-M   'P 1'
_cell_length_a   4.77330818
_cell_length_b   5.68499983
_cell_length_c   7.92004891
_cell_angle_alpha   86.32963985
_cell_angle_beta   89.59201157
_cell_angle_gamma   88.92513787
_symmetry_Int_Tables_number   1
_chemical_formula_structural   Mn6O5F7
_chemical_formula_sum   'Mn6 O5 F7'
_cell_volume   214.43813170
_cell_formula_units_Z   1
loop_
 _symmetry_equiv_pos_site_id
 _symmetry_equiv_pos_as_xyz
  1  'x, y, z'
loop_
 _atom_site_type_symbol
 _atom_site_label
 _atom_site_symmetry_multiplicity
 _atom_site_fract_x
 _atom_site_fract_y
 _atom_site_fract_z
 _atom_site_occupancy
  Mn  Mn0  1  0.453600  0.510187  0.991429  1
  Mn  Mn1  1  0.543725  0.163205  0.343974  1
  Mn  Mn2  1  0.519282  0.819054  0.657142  1
  Mn  Mn3  1  0.992681  0.672760  0.329009  1
  Mn  Mn4  1  0.996576  0.345046  0.663650  1
  Mn  Mn5  1  0.994402  0.993017  0.017724  1
  O  O6  1  0.810210  0.614769  0.547634  1
  O  O7  1  0.806971  0.964913  0.240083  1
  O  O8  1  0.695287  0.118543  0.570842  1
  O  O9  1  0.303333  0.545481  0.757050  1
  O  O10  1  0.174117  0.709327  0.105928  1
  F  F11  1  0.802384  0.289952  0.916895  1
  F  F12  1  0.695929  0.800972  0.893902  1
  F  F13  1  0.684390  0.473348  0.215418  1
  F  F14  1  0.298040  0.871473  0.439641  1
  F  F15  1  0.320427  0.191560  0.116140  1
  F  F16  1  0.214685  0.370487  0.414596  1
  F  F17  1  0.193962  0.045904  0.778945  1
