# generated using pymatgen
data_YGa3
_symmetry_space_group_name_H-M   'P 1'
_cell_length_a   6.30194549
_cell_length_b   6.30194549
_cell_length_c   4.58189580
_cell_angle_alpha   90.00000000
_cell_angle_beta   90.00000000
_cell_angle_gamma   120.00000000
_symmetry_Int_Tables_number   1
_chemical_formula_structural   YGa3
_chemical_formula_sum   'Y2 Ga6'
_cell_volume   157.58871886
_cell_formula_units_Z   2
loop_
 _symmetry_equiv_pos_site_id
 _symmetry_equiv_pos_as_xyz
  1  'x, y, z'
loop_
 _atom_site_type_symbol
 _atom_site_label
 _atom_site_symmetry_multiplicity
 _atom_site_fract_x
 _atom_site_fract_y
 _atom_site_fract_z
 _atom_site_occupancy
  Y  Y0  1  0.333333  0.666667  0.750000  1
  Y  Y1  1  0.666667  0.333333  0.250000  1
  Ga  Ga2  1  0.147624  0.295248  0.250000  1
  Ga  Ga3  1  0.704752  0.852376  0.250000  1
  Ga  Ga4  1  0.147624  0.852376  0.250000  1
  Ga  Ga5  1  0.852376  0.704752  0.750000  1
  Ga  Ga6  1  0.295248  0.147624  0.750000  1
  Ga  Ga7  1  0.852376  0.147624  0.750000  1
