# generated using pymatgen
data_Ca3SnS5
_symmetry_space_group_name_H-M   'P 1'
_cell_length_a   8.61871808
_cell_length_b   8.71217468
_cell_length_c   12.18189519
_cell_angle_alpha   90.00000000
_cell_angle_beta   90.00000000
_cell_angle_gamma   90.00000000
_symmetry_Int_Tables_number   1
_chemical_formula_structural   Ca3SnS5
_chemical_formula_sum   'Ca12 Sn4 S20'
_cell_volume   914.71143471
_cell_formula_units_Z   4
loop_
 _symmetry_equiv_pos_site_id
 _symmetry_equiv_pos_as_xyz
  1  'x, y, z'
loop_
 _atom_site_type_symbol
 _atom_site_label
 _atom_site_symmetry_multiplicity
 _atom_site_fract_x
 _atom_site_fract_y
 _atom_site_fract_z
 _atom_site_occupancy
  Ca  Ca0  1  0.511218  0.109959  0.202936  1
  Ca  Ca1  1  0.988782  0.390041  0.702936  1
  Ca  Ca2  1  0.011218  0.890041  0.797064  1
  Ca  Ca3  1  0.488782  0.609959  0.297064  1
  Ca  Ca4  1  0.488782  0.890041  0.797064  1
  Ca  Ca5  1  0.011218  0.609959  0.297064  1
  Ca  Ca6  1  0.988782  0.109959  0.202936  1
  Ca  Ca7  1  0.511218  0.390041  0.702936  1
  Ca  Ca8  1  0.250000  0.110079  0.509340  1
  Ca  Ca9  1  0.250000  0.389921  0.009340  1
  Ca  Ca10  1  0.750000  0.889921  0.490660  1
  Ca  Ca11  1  0.750000  0.610079  0.990660  1
  Sn  Sn12  1  0.250000  0.817854  0.092525  1
  Sn  Sn13  1  0.250000  0.682146  0.592525  1
  Sn  Sn14  1  0.750000  0.182146  0.907475  1
  Sn  Sn15  1  0.750000  0.317854  0.407475  1
  S  S16  1  0.955464  0.139981  0.428041  1
  S  S17  1  0.544536  0.360019  0.928041  1
  S  S18  1  0.455464  0.860019  0.571959  1
  S  S19  1  0.044536  0.639981  0.071959  1
  S  S20  1  0.044536  0.860019  0.571959  1
  S  S21  1  0.455464  0.639981  0.071959  1
  S  S22  1  0.544536  0.139981  0.428041  1
  S  S23  1  0.955464  0.360019  0.928041  1
  S  S24  1  0.250000  0.021998  0.962048  1
  S  S25  1  0.250000  0.478002  0.462048  1
  S  S26  1  0.750000  0.978002  0.037952  1
  S  S27  1  0.750000  0.521998  0.537952  1
  S  S28  1  0.250000  0.297071  0.219457  1
  S  S29  1  0.250000  0.202929  0.719457  1
  S  S30  1  0.750000  0.702929  0.780543  1
  S  S31  1  0.750000  0.797071  0.280543  1
  S  S32  1  0.250000  0.867725  0.289616  1
  S  S33  1  0.250000  0.632275  0.789616  1
  S  S34  1  0.750000  0.132275  0.710384  1
  S  S35  1  0.750000  0.367725  0.210384  1
