# generated using pymatgen
data_Fe3(SiO4)2
_symmetry_space_group_name_H-M   'P 1'
_cell_length_a   5.16432699
_cell_length_b   8.94192498
_cell_length_c   13.65960963
_cell_angle_alpha   106.39940163
_cell_angle_beta   100.88504270
_cell_angle_gamma   90.63613134
_symmetry_Int_Tables_number   1
_chemical_formula_structural   Fe3(SiO4)2
_chemical_formula_sum   'Fe9 Si6 O24'
_cell_volume   592.84679900
_cell_formula_units_Z   3
loop_
 _symmetry_equiv_pos_site_id
 _symmetry_equiv_pos_as_xyz
  1  'x, y, z'
loop_
 _atom_site_type_symbol
 _atom_site_label
 _atom_site_symmetry_multiplicity
 _atom_site_fract_x
 _atom_site_fract_y
 _atom_site_fract_z
 _atom_site_occupancy
  Fe  Fe0  1  0.032954  0.013273  0.000733  1
  Fe  Fe1  1  0.771711  0.727716  0.511559  1
  Fe  Fe2  1  0.779972  0.270342  0.820256  1
  Fe  Fe3  1  0.716566  0.537015  0.671737  1
  Fe  Fe4  1  0.102429  0.748468  0.148814  1
  Fe  Fe5  1  0.379463  0.475776  0.957421  1
  Fe  Fe6  1  0.307118  0.745386  0.811478  1
  Fe  Fe7  1  0.104855  0.172873  0.467303  1
  Fe  Fe8  1  0.028570  0.443267  0.313605  1
  Si  Si9  1  0.957518  0.381158  0.062864  1
  Si  Si10  1  0.551627  0.841097  0.047731  1
  Si  Si11  1  0.814248  0.892796  0.751563  1
  Si  Si12  1  0.583102  0.357370  0.420197  1
  Si  Si13  1  0.195868  0.804703  0.397240  1
  Si  Si14  1  0.221671  0.368065  0.717089  1
  O  O15  1  0.997235  0.657017  0.405875  1
  O  O16  1  0.874835  0.305936  0.385868  1
  O  O17  1  0.026233  0.958342  0.419649  1
  O  O18  1  0.869197  0.414750  0.174534  1
  O  O19  1  0.948799  0.830084  0.649052  1
  O  O20  1  0.685365  0.980590  0.015087  1
  O  O21  1  0.746893  0.788261  0.138211  1
  O  O22  1  0.660995  0.520095  0.519514  1
  O  O23  1  0.450559  0.220878  0.454684  1
  O  O24  1  0.709296  0.359736  0.960339  1
  O  O25  1  0.599426  0.750423  0.741169  1
  O  O26  1  0.384758  0.404033  0.326899  1
  O  O27  1  0.551906  0.385102  0.740545  1
  O  O28  1  0.687777  0.061010  0.770483  1
  O  O29  1  0.466683  0.822889  0.482649  1
  O  O30  1  0.258623  0.749848  0.280292  1
  O  O31  1  0.263887  0.897426  0.085896  1
  O  O32  1  0.120341  0.226037  0.029022  1
  O  O33  1  0.137942  0.537233  0.062666  1
  O  O34  1  0.459594  0.688810  0.945231  1
  O  O35  1  0.084008  0.244746  0.607888  1
  O  O36  1  0.140688  0.323826  0.819245  1
  O  O37  1  0.111942  0.539469  0.720683  1
  O  O38  1  0.046911  0.904899  0.858101  1
