# generated using pymatgen
data_Ba2GdC2(O2F)3
_symmetry_space_group_name_H-M   'P 1'
_cell_length_a   7.10297672
_cell_length_b   9.65597358
_cell_length_c   11.95948181
_cell_angle_alpha   90.00000000
_cell_angle_beta   90.00000000
_cell_angle_gamma   90.00000000
_symmetry_Int_Tables_number   1
_chemical_formula_structural   Ba2GdC2(O2F)3
_chemical_formula_sum   'Ba8 Gd4 C8 O24 F12'
_cell_volume   820.25487969
_cell_formula_units_Z   4
loop_
 _symmetry_equiv_pos_site_id
 _symmetry_equiv_pos_as_xyz
  1  'x, y, z'
loop_
 _atom_site_type_symbol
 _atom_site_label
 _atom_site_symmetry_multiplicity
 _atom_site_fract_x
 _atom_site_fract_y
 _atom_site_fract_z
 _atom_site_occupancy
  Ba  Ba0  1  0.761721  0.379970  0.428693  1
  Ba  Ba1  1  0.761721  0.620030  0.071307  1
  Ba  Ba2  1  0.738279  0.879970  0.571307  1
  Ba  Ba3  1  0.738279  0.120030  0.928693  1
  Ba  Ba4  1  0.261721  0.879970  0.071307  1
  Ba  Ba5  1  0.261721  0.120030  0.428693  1
  Ba  Ba6  1  0.238279  0.379970  0.928693  1
  Ba  Ba7  1  0.238279  0.620030  0.571307  1
  Gd  Gd8  1  0.727444  0.000000  0.250000  1
  Gd  Gd9  1  0.772556  0.500000  0.750000  1
  Gd  Gd10  1  0.272556  0.000000  0.750000  1
  Gd  Gd11  1  0.227444  0.500000  0.250000  1
  C  C12  1  0.520641  0.305859  0.178659  1
  C  C13  1  0.520641  0.694141  0.321341  1
  C  C14  1  0.979359  0.805859  0.821341  1
  C  C15  1  0.979359  0.194141  0.678659  1
  C  C16  1  0.479359  0.694141  0.821341  1
  C  C17  1  0.479359  0.305859  0.678659  1
  C  C18  1  0.020641  0.194141  0.178659  1
  C  C19  1  0.020641  0.805859  0.321341  1
  O  O20  1  0.618547  0.203108  0.143849  1
  O  O21  1  0.618547  0.796892  0.356151  1
  O  O22  1  0.881453  0.703108  0.856151  1
  O  O23  1  0.881453  0.296892  0.643849  1
  O  O24  1  0.381453  0.796892  0.856151  1
  O  O25  1  0.381453  0.203108  0.643849  1
  O  O26  1  0.118547  0.296892  0.143849  1
  O  O27  1  0.118547  0.703108  0.356151  1
  O  O28  1  0.478510  0.409112  0.112748  1
  O  O29  1  0.478510  0.590888  0.387252  1
  O  O30  1  0.021490  0.909112  0.887252  1
  O  O31  1  0.021490  0.090888  0.612748  1
  O  O32  1  0.521490  0.590888  0.887252  1
  O  O33  1  0.521490  0.409112  0.612748  1
  O  O34  1  0.978510  0.090888  0.112748  1
  O  O35  1  0.978510  0.909112  0.387252  1
  O  O36  1  0.959243  0.813290  0.218150  1
  O  O37  1  0.959243  0.186710  0.281850  1
  O  O38  1  0.540757  0.313290  0.781850  1
  O  O39  1  0.540757  0.686710  0.718150  1
  O  O40  1  0.040757  0.186710  0.781850  1
  O  O41  1  0.040757  0.813290  0.718150  1
  O  O42  1  0.459243  0.686710  0.218150  1
  O  O43  1  0.459243  0.313290  0.281850  1
  F  F44  1  0.897225  0.500000  0.250000  1
  F  F45  1  0.602775  0.000000  0.750000  1
  F  F46  1  0.102775  0.500000  0.750000  1
  F  F47  1  0.397225  0.000000  0.250000  1
  F  F48  1  0.649185  0.904763  0.075724  1
  F  F49  1  0.649185  0.095237  0.424276  1
  F  F50  1  0.850815  0.404763  0.924276  1
  F  F51  1  0.850815  0.595237  0.575724  1
  F  F52  1  0.350815  0.095237  0.924276  1
  F  F53  1  0.350815  0.904763  0.575724  1
  F  F54  1  0.149185  0.595237  0.075724  1
  F  F55  1  0.149185  0.404763  0.424276  1
