# generated using pymatgen
data_Li4Fe3Sn2Sb3O16
_symmetry_space_group_name_H-M   'P 1'
_cell_length_a   6.24651834
_cell_length_b   6.24651834
_cell_length_c   9.93564972
_cell_angle_alpha   89.32417412
_cell_angle_beta   90.67582588
_cell_angle_gamma   120.07749133
_symmetry_Int_Tables_number   1
_chemical_formula_structural   Li4Fe3Sn2Sb3O16
_chemical_formula_sum   'Li4 Fe3 Sn2 Sb3 O16'
_cell_volume   335.44632567
_cell_formula_units_Z   1
loop_
 _symmetry_equiv_pos_site_id
 _symmetry_equiv_pos_as_xyz
  1  'x, y, z'
loop_
 _atom_site_type_symbol
 _atom_site_label
 _atom_site_symmetry_multiplicity
 _atom_site_fract_x
 _atom_site_fract_y
 _atom_site_fract_z
 _atom_site_occupancy
  Li  Li0  1  0.662469  0.337531  0.887208  1
  Li  Li1  1  0.987460  0.012540  0.983687  1
  Li  Li2  1  0.994166  0.005834  0.500745  1
  Li  Li3  1  0.326350  0.673650  0.405607  1
  Fe  Fe4  1  0.830488  0.169512  0.214309  1
  Fe  Fe5  1  0.175389  0.336404  0.712437  1
  Fe  Fe6  1  0.663596  0.824611  0.712437  1
  Sn  Sn7  1  0.678335  0.321665  0.501776  1
  Sn  Sn8  1  0.343241  0.656759  0.979191  1
  Sb  Sb9  1  0.337694  0.168290  0.215283  1
  Sb  Sb10  1  0.831710  0.662306  0.215283  1
  Sb  Sb11  1  0.173451  0.826549  0.714447  1
  O  O12  1  0.329701  0.149006  0.593255  1
  O  O13  1  0.516486  0.483514  0.338614  1
  O  O14  1  0.662815  0.337185  0.106778  1
  O  O15  1  0.001083  0.998917  0.313423  1
  O  O16  1  0.013036  0.986964  0.804219  1
  O  O17  1  0.850994  0.670299  0.593255  1
  O  O18  1  0.513583  0.041453  0.338497  1
  O  O19  1  0.958547  0.486417  0.338497  1
  O  O20  1  0.161349  0.838651  0.103718  1
  O  O21  1  0.842171  0.157829  0.595762  1
  O  O22  1  0.032386  0.530246  0.845159  1
  O  O23  1  0.469754  0.967614  0.845159  1
  O  O24  1  0.321953  0.678047  0.602880  1
  O  O25  1  0.165694  0.320477  0.101116  1
  O  O26  1  0.483456  0.516544  0.844192  1
  O  O27  1  0.679523  0.834306  0.101116  1
