# generated using pymatgen
data_Mn2V3O12
_symmetry_space_group_name_H-M   'P 1'
_cell_length_a   8.73193188
_cell_length_b   9.01217085
_cell_length_c   14.98451592
_cell_angle_alpha   90.00000000
_cell_angle_beta   124.98919081
_cell_angle_gamma   90.00000000
_symmetry_Int_Tables_number   1
_chemical_formula_structural   Mn2V3O12
_chemical_formula_sum   'Mn8 V12 O48'
_cell_volume   966.06055537
_cell_formula_units_Z   4
loop_
 _symmetry_equiv_pos_site_id
 _symmetry_equiv_pos_as_xyz
  1  'x, y, z'
loop_
 _atom_site_type_symbol
 _atom_site_label
 _atom_site_symmetry_multiplicity
 _atom_site_fract_x
 _atom_site_fract_y
 _atom_site_fract_z
 _atom_site_occupancy
  Mn  Mn0  1  0.367966  0.974299  0.116235  1
  Mn  Mn1  1  0.632034  0.474299  0.383765  1
  Mn  Mn2  1  0.871634  0.028613  0.619084  1
  Mn  Mn3  1  0.128366  0.528613  0.880916  1
  Mn  Mn4  1  0.871634  0.471387  0.119084  1
  Mn  Mn5  1  0.128366  0.971387  0.380916  1
  Mn  Mn6  1  0.367966  0.525701  0.616235  1
  Mn  Mn7  1  0.632034  0.025701  0.883765  1
  V  V8  1  0.542584  0.751383  0.509849  1
  V  V9  1  0.255355  0.618093  0.147561  1
  V  V10  1  0.970470  0.887923  0.858355  1
  V  V11  1  0.744645  0.118093  0.352439  1
  V  V12  1  0.029530  0.387923  0.641645  1
  V  V13  1  0.457416  0.251383  0.990151  1
  V  V14  1  0.542584  0.748617  0.009849  1
  V  V15  1  0.970470  0.612077  0.358355  1
  V  V16  1  0.255355  0.881907  0.647561  1
  V  V17  1  0.029530  0.112077  0.141645  1
  V  V18  1  0.744645  0.381907  0.852439  1
  V  V19  1  0.457416  0.248617  0.490151  1
  O  O20  1  0.636947  0.124240  0.556967  1
  O  O21  1  0.182388  0.107737  0.101023  1
  O  O22  1  0.462267  0.340814  0.386978  1
  O  O23  1  0.896670  0.429863  0.817604  1
  O  O24  1  0.514750  0.627556  0.412020  1
  O  O25  1  0.280083  0.811920  0.155280  1
  O  O26  1  0.159088  0.564879  0.015196  1
  O  O27  1  0.886698  0.005503  0.748950  1
  O  O28  1  0.992588  0.709437  0.824851  1
  O  O29  1  0.754787  0.840818  0.570076  1
  O  O30  1  0.468866  0.526363  0.233096  1
  O  O31  1  0.531134  0.026363  0.266904  1
  O  O32  1  0.195778  0.942153  0.964008  1
  O  O33  1  0.804222  0.442153  0.535992  1
  O  O34  1  0.245213  0.340818  0.929924  1
  O  O35  1  0.007412  0.209437  0.675149  1
  O  O36  1  0.840912  0.064879  0.484804  1
  O  O37  1  0.113302  0.505503  0.751050  1
  O  O38  1  0.719917  0.311920  0.344720  1
  O  O39  1  0.485250  0.127556  0.087980  1
  O  O40  1  0.537733  0.840814  0.113022  1
  O  O41  1  0.817612  0.607737  0.398977  1
  O  O42  1  0.103330  0.929863  0.682396  1
  O  O43  1  0.363053  0.624240  0.943033  1
  O  O44  1  0.636947  0.375760  0.056967  1
  O  O45  1  0.896670  0.070137  0.317604  1
  O  O46  1  0.182388  0.392263  0.601023  1
  O  O47  1  0.462267  0.159186  0.886978  1
  O  O48  1  0.514750  0.872444  0.912020  1
  O  O49  1  0.280083  0.688080  0.655280  1
  O  O50  1  0.886698  0.494497  0.248950  1
  O  O51  1  0.159088  0.935121  0.515196  1
  O  O52  1  0.992588  0.790563  0.324851  1
  O  O53  1  0.754787  0.659182  0.070076  1
  O  O54  1  0.195778  0.557847  0.464008  1
  O  O55  1  0.804222  0.057847  0.035992  1
  O  O56  1  0.468866  0.973637  0.733096  1
  O  O57  1  0.531134  0.473637  0.766904  1
  O  O58  1  0.245213  0.159182  0.429924  1
  O  O59  1  0.007412  0.290563  0.175149  1
  O  O60  1  0.113302  0.994497  0.251050  1
  O  O61  1  0.840912  0.435121  0.984804  1
  O  O62  1  0.719917  0.188080  0.844720  1
  O  O63  1  0.485250  0.372444  0.587980  1
  O  O64  1  0.103330  0.570137  0.182396  1
  O  O65  1  0.537733  0.659186  0.613022  1
  O  O66  1  0.817612  0.892263  0.898977  1
  O  O67  1  0.363053  0.875760  0.443033  1
