# generated using pymatgen
data_Mn3(OF2)2
_symmetry_space_group_name_H-M   'P 1'
_cell_length_a   10.87739115
_cell_length_b   10.87739115
_cell_length_c   3.13642533
_cell_angle_alpha   90.00000000
_cell_angle_beta   90.00000000
_cell_angle_gamma   143.40739798
_symmetry_Int_Tables_number   1
_chemical_formula_structural   Mn3(OF2)2
_chemical_formula_sum   'Mn6 O4 F8'
_cell_volume   221.21726564
_cell_formula_units_Z   2
loop_
 _symmetry_equiv_pos_site_id
 _symmetry_equiv_pos_as_xyz
  1  'x, y, z'
loop_
 _atom_site_type_symbol
 _atom_site_label
 _atom_site_symmetry_multiplicity
 _atom_site_fract_x
 _atom_site_fract_y
 _atom_site_fract_z
 _atom_site_occupancy
  Mn  Mn0  1  0.675863  0.324137  0.000000  1
  Mn  Mn1  1  0.829052  0.170948  0.500000  1
  Mn  Mn2  1  0.170948  0.829052  0.500000  1
  Mn  Mn3  1  0.000000  0.000000  0.000000  1
  Mn  Mn4  1  0.324137  0.675863  0.000000  1
  Mn  Mn5  1  0.500000  0.500000  0.500000  1
  O  O6  1  0.734745  0.265255  0.500000  1
  O  O7  1  0.310359  0.310359  1.000000  1
  O  O8  1  0.265255  0.734745  0.500000  1
  O  O9  1  0.689641  0.689641  1.000000  1
  F  F10  1  0.360930  0.030559  0.000000  1
  F  F11  1  0.639070  0.969441  1.000000  1
  F  F12  1  0.969441  0.639070  1.000000  1
  F  F13  1  0.929599  0.070401  0.500000  1
  F  F14  1  0.388832  0.611168  0.500000  1
  F  F15  1  0.070401  0.929599  0.500000  1
  F  F16  1  0.030559  0.360930  0.000000  1
  F  F17  1  0.611168  0.388832  0.500000  1
