# generated using pymatgen
data_K5As2Au
_symmetry_space_group_name_H-M   'P 1'
_cell_length_a   5.80347060
_cell_length_b   5.80347060
_cell_length_c   19.51748848
_cell_angle_alpha   90.00000000
_cell_angle_beta   90.00000000
_cell_angle_gamma   120.00000000
_symmetry_Int_Tables_number   1
_chemical_formula_structural   K5As2Au
_chemical_formula_sum   'K10 As4 Au2'
_cell_volume   569.28552428
_cell_formula_units_Z   2
loop_
 _symmetry_equiv_pos_site_id
 _symmetry_equiv_pos_as_xyz
  1  'x, y, z'
loop_
 _atom_site_type_symbol
 _atom_site_label
 _atom_site_symmetry_multiplicity
 _atom_site_fract_x
 _atom_site_fract_y
 _atom_site_fract_z
 _atom_site_occupancy
  K  K0  1  0.333333  0.666667  0.549250  1
  K  K1  1  0.666667  0.333333  0.049250  1
  K  K2  1  0.666667  0.333333  0.450750  1
  K  K3  1  0.333333  0.666667  0.950750  1
  K  K4  1  0.000000  0.000000  0.145316  1
  K  K5  1  0.000000  0.000000  0.645316  1
  K  K6  1  0.000000  0.000000  0.854684  1
  K  K7  1  0.000000  0.000000  0.354684  1
  K  K8  1  0.333333  0.666667  0.750000  1
  K  K9  1  0.666667  0.333333  0.250000  1
  As  As10  1  0.333333  0.666667  0.120978  1
  As  As11  1  0.666667  0.333333  0.620978  1
  As  As12  1  0.333333  0.666667  0.379022  1
  As  As13  1  0.666667  0.333333  0.879022  1
  Au  Au14  1  0.666667  0.333333  0.750000  1
  Au  Au15  1  0.333333  0.666667  0.250000  1
