# generated using pymatgen
data_LiCoO2
_symmetry_space_group_name_H-M   'P 1'
_cell_length_a   4.95337386
_cell_length_b   5.00346307
_cell_length_c   7.57310030
_cell_angle_alpha   108.77149518
_cell_angle_beta   102.85051784
_cell_angle_gamma   99.44978956
_symmetry_Int_Tables_number   1
_chemical_formula_structural   LiCoO2
_chemical_formula_sum   'Li5 Co5 O10'
_cell_volume   167.51178373
_cell_formula_units_Z   5
loop_
 _symmetry_equiv_pos_site_id
 _symmetry_equiv_pos_as_xyz
  1  'x, y, z'
loop_
 _atom_site_type_symbol
 _atom_site_label
 _atom_site_symmetry_multiplicity
 _atom_site_fract_x
 _atom_site_fract_y
 _atom_site_fract_z
 _atom_site_occupancy
  Li  Li0  1  0.798333  0.499895  0.414704  1
  Li  Li1  1  0.612786  0.509969  0.779115  1
  Li  Li2  1  0.000000  0.000000  0.500000  1
  Li  Li3  1  0.387214  0.490031  0.220885  1
  Li  Li4  1  0.201667  0.500105  0.585296  1
  Co  Co5  1  0.408029  0.003986  0.694515  1
  Co  Co6  1  0.000000  0.500000  0.000000  1
  Co  Co7  1  0.798467  0.998043  0.898907  1
  Co  Co8  1  0.201533  0.001957  0.101093  1
  Co  Co9  1  0.591971  0.996014  0.305485  1
  O  O10  1  0.180215  0.223455  0.857600  1
  O  O11  1  0.398951  0.777789  0.948594  1
  O  O12  1  0.581914  0.774618  0.548411  1
  O  O13  1  0.996892  0.241895  0.230618  1
  O  O14  1  0.779592  0.224114  0.666357  1
  O  O15  1  0.220408  0.775886  0.333643  1
  O  O16  1  0.003108  0.758105  0.769382  1
  O  O17  1  0.418086  0.225382  0.451589  1
  O  O18  1  0.601049  0.222211  0.051406  1
  O  O19  1  0.819785  0.776545  0.142400  1
