# generated using pymatgen
data_Li7Fe5OF15
_symmetry_space_group_name_H-M   'P 1'
_cell_length_a   9.96243077
_cell_length_b   10.07084877
_cell_length_c   10.37461521
_cell_angle_alpha   107.71409887
_cell_angle_beta   107.58380002
_cell_angle_gamma   110.17436578
_symmetry_Int_Tables_number   1
_chemical_formula_structural   Li7Fe5OF15
_chemical_formula_sum   'Li14 Fe10 O2 F30'
_cell_volume   828.67492294
_cell_formula_units_Z   2
loop_
 _symmetry_equiv_pos_site_id
 _symmetry_equiv_pos_as_xyz
  1  'x, y, z'
loop_
 _atom_site_type_symbol
 _atom_site_label
 _atom_site_symmetry_multiplicity
 _atom_site_fract_x
 _atom_site_fract_y
 _atom_site_fract_z
 _atom_site_occupancy
  Li  Li0  1  0.887670  0.146214  0.250041  1
  Li  Li1  1  0.515169  0.006755  0.046318  1
  Li  Li2  1  0.487653  0.464241  0.976411  1
  Li  Li3  1  0.482500  0.005134  0.533098  1
  Li  Li4  1  0.007819  0.058199  0.014669  1
  Li  Li5  1  0.257057  0.632565  0.893131  1
  Li  Li6  1  0.968503  0.983290  0.470074  1
  Li  Li7  1  0.645097  0.391887  0.748993  1
  Li  Li8  1  0.981090  0.527972  0.980380  1
  Li  Li9  1  0.739694  0.858369  0.612624  1
  Li  Li10  1  0.045652  0.486989  0.482407  1
  Li  Li11  1  0.373292  0.250529  0.107315  1
  Li  Li12  1  0.135557  0.749287  0.386921  1
  Li  Li13  1  0.540277  0.491265  0.511368  1
  Fe  Fe14  1  0.244076  0.370855  0.643403  1
  Fe  Fe15  1  0.641266  0.266901  0.356950  1
  Fe  Fe16  1  0.091446  0.233210  0.833487  1
  Fe  Fe17  1  0.734110  0.108594  0.855297  1
  Fe  Fe18  1  0.631070  0.923536  0.273421  1
  Fe  Fe19  1  0.342731  0.138385  0.730200  1
  Fe  Fe20  1  0.238259  0.872413  0.130385  1
  Fe  Fe21  1  0.385623  0.741640  0.646328  1
  Fe  Fe22  1  0.882260  0.755342  0.139954  1
  Fe  Fe23  1  0.746182  0.619184  0.365855  1
  O  O24  1  0.690510  0.116804  0.254695  1
  O  O25  1  0.144348  0.160665  0.661928  1
  F  F26  1  0.061601  0.298804  0.445570  1
  F  F27  1  0.377948  0.072756  0.124053  1
  F  F28  1  0.434120  0.938309  0.329050  1
  F  F29  1  0.892513  0.019749  0.801106  1
  F  F30  1  0.283251  0.460792  0.901178  1
  F  F31  1  0.216237  0.591955  0.694668  1
  F  F32  1  0.177102  0.237261  0.039474  1
  F  F33  1  0.664975  0.625527  0.161584  1
  F  F34  1  0.589273  0.182786  0.742837  1
  F  F35  1  0.858435  0.122964  0.053264  1
  F  F36  1  0.929626  0.310984  0.873232  1
  F  F37  1  0.507125  0.947640  0.847752  1
  F  F38  1  0.597601  0.335479  0.540250  1
  F  F39  1  0.866707  0.947831  0.257052  1
  F  F40  1  0.438670  0.807208  0.058059  1
  F  F41  1  0.105543  0.672042  0.931960  1
  F  F42  1  0.742875  0.879418  0.440207  1
  F  F43  1  0.796548  0.557821  0.947871  1
  F  F44  1  0.423674  0.545659  0.610306  1
  F  F45  1  0.461258  0.384337  0.770930  1
  F  F46  1  0.085532  0.708182  0.187623  1
  F  F47  1  0.045877  0.921382  0.097714  1
  F  F48  1  0.196186  0.616505  0.440270  1
  F  F49  1  0.446034  0.258746  0.962621  1
  F  F50  1  0.570142  0.892828  0.616869  1
  F  F51  1  0.296639  0.938553  0.564564  1
  F  F52  1  0.841370  0.472709  0.401314  1
  F  F53  1  0.527439  0.410778  0.304386  1
  F  F54  1  0.960284  0.779719  0.385292  1
  F  F55  1  0.733621  0.668166  0.563288  1
