# generated using pymatgen
data_LiY(MoO4)2
_symmetry_space_group_name_H-M   'P 1'
_cell_length_a   5.04830405
_cell_length_b   6.74801552
_cell_length_c   9.90468031
_cell_angle_alpha   98.11530665
_cell_angle_beta   100.96721142
_cell_angle_gamma   110.38825586
_symmetry_Int_Tables_number   1
_chemical_formula_structural   LiY(MoO4)2
_chemical_formula_sum   'Li2 Y2 Mo4 O16'
_cell_volume   302.50690295
_cell_formula_units_Z   2
loop_
 _symmetry_equiv_pos_site_id
 _symmetry_equiv_pos_as_xyz
  1  'x, y, z'
loop_
 _atom_site_type_symbol
 _atom_site_label
 _atom_site_symmetry_multiplicity
 _atom_site_fract_x
 _atom_site_fract_y
 _atom_site_fract_z
 _atom_site_occupancy
  Li  Li0  1  0.318384  0.164883  0.950797  1
  Li  Li1  1  0.681616  0.835117  0.049203  1
  Y  Y2  1  0.191322  0.315767  0.567019  1
  Y  Y3  1  0.808678  0.684233  0.432981  1
  Mo  Mo4  1  0.948522  0.610217  0.812082  1
  Mo  Mo5  1  0.051478  0.389783  0.187918  1
  Mo  Mo6  1  0.442338  0.069876  0.299393  1
  Mo  Mo7  1  0.557662  0.930124  0.700607  1
  O  O8  1  0.041668  0.380619  0.764071  1
  O  O9  1  0.958332  0.619381  0.235929  1
  O  O10  1  0.306835  0.830226  0.883323  1
  O  O11  1  0.693165  0.169774  0.116677  1
  O  O12  1  0.666681  0.579024  0.642761  1
  O  O13  1  0.333319  0.420976  0.357239  1
  O  O14  1  0.162619  0.055754  0.151331  1
  O  O15  1  0.837381  0.944246  0.848669  1
  O  O16  1  0.562776  0.852207  0.269463  1
  O  O17  1  0.437224  0.147793  0.730537  1
  O  O18  1  0.763064  0.567430  0.943624  1
  O  O19  1  0.236936  0.432570  0.056376  1
  O  O20  1  0.787019  0.310424  0.402216  1
  O  O21  1  0.212981  0.689576  0.597784  1
  O  O22  1  0.228313  0.016875  0.431251  1
  O  O23  1  0.771687  0.983125  0.568749  1
