# generated using pymatgen
data_Yb2AlGe3
_symmetry_space_group_name_H-M   'P 1'
_cell_length_a   4.19648530
_cell_length_b   6.92819984
_cell_length_c   18.32596538
_cell_angle_alpha   90.00000000
_cell_angle_beta   90.00000000
_cell_angle_gamma   90.00000000
_symmetry_Int_Tables_number   1
_chemical_formula_structural   Yb2AlGe3
_chemical_formula_sum   'Yb8 Al4 Ge12'
_cell_volume   532.81074451
_cell_formula_units_Z   4
loop_
 _symmetry_equiv_pos_site_id
 _symmetry_equiv_pos_as_xyz
  1  'x, y, z'
loop_
 _atom_site_type_symbol
 _atom_site_label
 _atom_site_symmetry_multiplicity
 _atom_site_fract_x
 _atom_site_fract_y
 _atom_site_fract_z
 _atom_site_occupancy
  Yb  Yb0  1  0.750000  0.665528  0.920112  1
  Yb  Yb1  1  0.250000  0.834472  0.420112  1
  Yb  Yb2  1  0.750000  0.165528  0.579888  1
  Yb  Yb3  1  0.250000  0.334472  0.079888  1
  Yb  Yb4  1  0.750000  0.686640  0.701140  1
  Yb  Yb5  1  0.250000  0.813360  0.201140  1
  Yb  Yb6  1  0.750000  0.186640  0.798860  1
  Yb  Yb7  1  0.250000  0.313360  0.298860  1
  Al  Al8  1  0.750000  0.963367  0.061283  1
  Al  Al9  1  0.250000  0.536633  0.561283  1
  Al  Al10  1  0.750000  0.463367  0.438717  1
  Al  Al11  1  0.250000  0.036633  0.938717  1
  Ge  Ge12  1  0.750000  0.742262  0.536342  1
  Ge  Ge13  1  0.250000  0.757738  0.036342  1
  Ge  Ge14  1  0.750000  0.242262  0.963658  1
  Ge  Ge15  1  0.250000  0.257738  0.463658  1
  Ge  Ge16  1  0.750000  0.996452  0.315794  1
  Ge  Ge17  1  0.250000  0.503548  0.815794  1
  Ge  Ge18  1  0.750000  0.496452  0.184206  1
  Ge  Ge19  1  0.250000  0.003548  0.684206  1
  Ge  Ge20  1  0.750000  0.632209  0.311593  1
  Ge  Ge21  1  0.250000  0.867791  0.811593  1
  Ge  Ge22  1  0.750000  0.132209  0.188407  1
  Ge  Ge23  1  0.250000  0.367791  0.688407  1
