# generated using pymatgen
data_CaSiPt
_symmetry_space_group_name_H-M   'P 1'
_cell_length_a   5.94328528
_cell_length_b   5.88222279
_cell_length_c   7.73935044
_cell_angle_alpha   90.00000000
_cell_angle_beta   117.24923857
_cell_angle_gamma   90.00000000
_symmetry_Int_Tables_number   1
_chemical_formula_structural   CaSiPt
_chemical_formula_sum   'Ca4 Si4 Pt4'
_cell_volume   240.53909119
_cell_formula_units_Z   4
loop_
 _symmetry_equiv_pos_site_id
 _symmetry_equiv_pos_as_xyz
  1  'x, y, z'
loop_
 _atom_site_type_symbol
 _atom_site_label
 _atom_site_symmetry_multiplicity
 _atom_site_fract_x
 _atom_site_fract_y
 _atom_site_fract_z
 _atom_site_occupancy
  Ca  Ca0  1  0.296354  0.871171  0.614246  1
  Ca  Ca1  1  0.296354  0.628829  0.114246  1
  Ca  Ca2  1  0.703646  0.128829  0.385754  1
  Ca  Ca3  1  0.703646  0.371171  0.885754  1
  Si  Si4  1  0.267070  0.379378  0.447032  1
  Si  Si5  1  0.732930  0.620622  0.552968  1
  Si  Si6  1  0.732930  0.879378  0.052968  1
  Si  Si7  1  0.267070  0.120622  0.947032  1
  Pt  Pt8  1  0.122495  0.391368  0.691603  1
  Pt  Pt9  1  0.877505  0.608632  0.308397  1
  Pt  Pt10  1  0.122495  0.108632  0.191603  1
  Pt  Pt11  1  0.877505  0.891368  0.808397  1
