# generated using pymatgen
data_LiFe(SiO3)2
_symmetry_space_group_name_H-M   'P 1'
_cell_length_a   7.76939795
_cell_length_b   7.76939795
_cell_length_c   9.97611728
_cell_angle_alpha   90.00000000
_cell_angle_beta   90.00000000
_cell_angle_gamma   93.25210688
_symmetry_Int_Tables_number   1
_chemical_formula_structural   LiFe(SiO3)2
_chemical_formula_sum   'Li4 Fe4 Si8 O24'
_cell_volume   601.22401734
_cell_formula_units_Z   4
loop_
 _symmetry_equiv_pos_site_id
 _symmetry_equiv_pos_as_xyz
  1  'x, y, z'
loop_
 _atom_site_type_symbol
 _atom_site_label
 _atom_site_symmetry_multiplicity
 _atom_site_fract_x
 _atom_site_fract_y
 _atom_site_fract_z
 _atom_site_occupancy
  Li  Li0  1  0.899715  0.100285  0.250000  1
  Li  Li1  1  0.399019  0.399019  0.000000  1
  Li  Li2  1  0.600981  0.600981  0.500000  1
  Li  Li3  1  0.100285  0.899715  0.750000  1
  Fe  Fe4  1  0.662034  0.153536  0.544421  1
  Fe  Fe5  1  0.846464  0.337966  0.955579  1
  Fe  Fe6  1  0.153536  0.662034  0.455579  1
  Fe  Fe7  1  0.337966  0.846464  0.044421  1
  Si  Si8  1  0.071160  0.071160  0.500000  1
  Si  Si9  1  0.367389  0.144139  0.297114  1
  Si  Si10  1  0.144139  0.367389  0.702886  1
  Si  Si11  1  0.546942  0.453058  0.750000  1
  Si  Si12  1  0.453058  0.546942  0.250000  1
  Si  Si13  1  0.855861  0.632611  0.202886  1
  Si  Si14  1  0.632611  0.855861  0.797114  1
  Si  Si15  1  0.928840  0.928840  0.000000  1
  O  O16  1  0.629826  0.996137  0.679518  1
  O  O17  1  0.873204  0.106192  0.456119  1
  O  O18  1  0.500725  0.104671  0.414027  1
  O  O19  1  0.169042  0.137605  0.360289  1
  O  O20  1  0.137605  0.169042  0.639711  1
  O  O21  1  0.893808  0.126796  0.043881  1
  O  O22  1  0.411907  0.336589  0.228025  1
  O  O23  1  0.620080  0.380803  0.608538  1
  O  O24  1  0.619197  0.379920  0.891462  1
  O  O25  1  0.003863  0.370174  0.820482  1
  O  O26  1  0.336589  0.411907  0.771975  1
  O  O27  1  0.104671  0.500725  0.585973  1
  O  O28  1  0.895329  0.499275  0.085973  1
  O  O29  1  0.663411  0.588093  0.271975  1
  O  O30  1  0.996137  0.629826  0.320482  1
  O  O31  1  0.380803  0.620080  0.391462  1
  O  O32  1  0.379920  0.619197  0.108538  1
  O  O33  1  0.588093  0.663411  0.728025  1
  O  O34  1  0.106192  0.873204  0.543881  1
  O  O35  1  0.862395  0.830958  0.139711  1
  O  O36  1  0.830958  0.862395  0.860289  1
  O  O37  1  0.499275  0.895329  0.914027  1
  O  O38  1  0.126796  0.893808  0.956119  1
  O  O39  1  0.370174  0.003863  0.179518  1
