# generated using pymatgen
data_LiMn3(BO3)3
_symmetry_space_group_name_H-M   'P 1'
_cell_length_a   5.91996288
_cell_length_b   7.93390379
_cell_length_c   9.12010478
_cell_angle_alpha   109.56191665
_cell_angle_beta   107.21764694
_cell_angle_gamma   98.60665825
_symmetry_Int_Tables_number   1
_chemical_formula_structural   LiMn3(BO3)3
_chemical_formula_sum   'Li2 Mn6 B6 O18'
_cell_volume   370.52648732
_cell_formula_units_Z   2
loop_
 _symmetry_equiv_pos_site_id
 _symmetry_equiv_pos_as_xyz
  1  'x, y, z'
loop_
 _atom_site_type_symbol
 _atom_site_label
 _atom_site_symmetry_multiplicity
 _atom_site_fract_x
 _atom_site_fract_y
 _atom_site_fract_z
 _atom_site_occupancy
  Li  Li0  1  0.108934  0.792397  0.788239  1
  Li  Li1  1  0.891066  0.207603  0.211761  1
  Mn  Mn2  1  0.018384  0.772402  0.101649  1
  Mn  Mn3  1  0.602351  0.870136  0.246866  1
  Mn  Mn4  1  0.981616  0.227598  0.898351  1
  Mn  Mn5  1  0.397649  0.129864  0.753134  1
  Mn  Mn6  1  0.698497  0.445492  0.421392  1
  Mn  Mn7  1  0.301503  0.554508  0.578608  1
  B  B8  1  0.736842  0.478419  0.772680  1
  B  B9  1  0.949167  0.197020  0.553664  1
  B  B10  1  0.263158  0.521581  0.227320  1
  B  B11  1  0.050833  0.802980  0.446336  1
  B  B12  1  0.379839  0.120275  0.095110  1
  B  B13  1  0.620161  0.879725  0.904890  1
  O  O14  1  0.910209  0.645373  0.855374  1
  O  O15  1  0.572813  0.426665  0.609169  1
  O  O16  1  0.984200  0.320603  0.474905  1
  O  O17  1  0.283191  0.651336  0.155978  1
  O  O18  1  0.761487  0.042068  0.480381  1
  O  O19  1  0.089791  0.354627  0.144626  1
  O  O20  1  0.111779  0.251700  0.721170  1
  O  O21  1  0.427187  0.573335  0.390831  1
  O  O22  1  0.663404  0.013244  0.841150  1
  O  O23  1  0.716809  0.348664  0.844022  1
  O  O24  1  0.888221  0.748300  0.278830  1
  O  O25  1  0.222187  0.077888  0.928203  1
  O  O26  1  0.238513  0.957932  0.519619  1
  O  O27  1  0.576683  0.273965  0.178466  1
  O  O28  1  0.015800  0.679397  0.525095  1
  O  O29  1  0.336596  0.986756  0.158850  1
  O  O30  1  0.777813  0.922112  0.071797  1
  O  O31  1  0.423317  0.726035  0.821534  1
