# generated using pymatgen
data_LiMnCr2O6
_symmetry_space_group_name_H-M   'P 1'
_cell_length_a   6.61047911
_cell_length_b   6.61047911
_cell_length_c   5.98262336
_cell_angle_alpha   76.91333882
_cell_angle_beta   103.08666118
_cell_angle_gamma   154.35808089
_symmetry_Int_Tables_number   1
_chemical_formula_structural   LiMnCr2O6
_chemical_formula_sum   'Li1 Mn1 Cr2 O6'
_cell_volume   110.04066164
_cell_formula_units_Z   1
loop_
 _symmetry_equiv_pos_site_id
 _symmetry_equiv_pos_as_xyz
  1  'x, y, z'
loop_
 _atom_site_type_symbol
 _atom_site_label
 _atom_site_symmetry_multiplicity
 _atom_site_fract_x
 _atom_site_fract_y
 _atom_site_fract_z
 _atom_site_occupancy
  Li  Li0  1  0.334023  0.665977  0.164485  1
  Mn  Mn1  1  0.662992  0.337008  0.345236  1
  Cr  Cr2  1  0.332487  0.667513  0.668436  1
  Cr  Cr3  1  0.007652  0.992348  0.986633  1
  O  O4  1  0.172419  0.827581  0.558654  1
  O  O5  1  0.850067  0.149933  0.907694  1
  O  O6  1  0.162652  0.837348  0.125141  1
  O  O7  1  0.817160  0.182840  0.429902  1
  O  O8  1  0.493006  0.506994  0.777963  1
  O  O9  1  0.509028  0.490972  0.212165  1
