# generated using pymatgen
data_ICl2
_symmetry_space_group_name_H-M   'P 1'
_cell_length_a   7.95999197
_cell_length_b   7.95999197
_cell_length_c   4.35074152
_cell_angle_alpha   90.00000000
_cell_angle_beta   90.00000000
_cell_angle_gamma   90.00000000
_symmetry_Int_Tables_number   1
_chemical_formula_structural   ICl2
_chemical_formula_sum   'I2 Cl4'
_cell_volume   275.66938771
_cell_formula_units_Z   2
loop_
 _symmetry_equiv_pos_site_id
 _symmetry_equiv_pos_as_xyz
  1  'x, y, z'
loop_
 _atom_site_type_symbol
 _atom_site_label
 _atom_site_symmetry_multiplicity
 _atom_site_fract_x
 _atom_site_fract_y
 _atom_site_fract_z
 _atom_site_occupancy
  I  I0  1  0.000000  0.000000  0.000000  1
  I  I1  1  0.500000  0.500000  0.500000  1
  Cl  Cl2  1  0.356518  0.356518  0.000000  1
  Cl  Cl3  1  0.643482  0.643482  0.000000  1
  Cl  Cl4  1  0.143482  0.856518  0.500000  1
  Cl  Cl5  1  0.856518  0.143482  0.500000  1
