# generated using pymatgen
data_LiFe2P2HO8
_symmetry_space_group_name_H-M   'P 1'
_cell_length_a   8.48918606
_cell_length_b   5.01307749
_cell_length_c   15.09170618
_cell_angle_alpha   90.00000000
_cell_angle_beta   94.24653142
_cell_angle_gamma   90.00000000
_symmetry_Int_Tables_number   1
_chemical_formula_structural   LiFe2P2HO8
_chemical_formula_sum   'Li4 Fe8 P8 H4 O32'
_cell_volume   640.49374050
_cell_formula_units_Z   4
loop_
 _symmetry_equiv_pos_site_id
 _symmetry_equiv_pos_as_xyz
  1  'x, y, z'
loop_
 _atom_site_type_symbol
 _atom_site_label
 _atom_site_symmetry_multiplicity
 _atom_site_fract_x
 _atom_site_fract_y
 _atom_site_fract_z
 _atom_site_occupancy
  Li  Li0  1  0.000000  0.016748  0.750000  1
  Li  Li1  1  0.000000  0.983252  0.250000  1
  Li  Li2  1  0.500000  0.849988  0.750000  1
  Li  Li3  1  0.500000  0.150012  0.250000  1
  Fe  Fe4  1  0.084054  0.237622  0.500000  1
  Fe  Fe5  1  0.084054  0.762378  0.000000  1
  Fe  Fe6  1  0.421449  0.756288  0.001846  1
  Fe  Fe7  1  0.421449  0.243712  0.501846  1
  Fe  Fe8  1  0.578551  0.756288  0.498154  1
  Fe  Fe9  1  0.578551  0.243712  0.998154  1
  Fe  Fe10  1  0.915946  0.237622  1.000000  1
  Fe  Fe11  1  0.915946  0.762378  0.500000  1
  P  P12  1  0.231413  0.261865  0.889228  1
  P  P13  1  0.231413  0.738135  0.389228  1
  P  P14  1  0.263979  0.732009  0.619840  1
  P  P15  1  0.263979  0.267991  0.119840  1
  P  P16  1  0.736021  0.732009  0.880160  1
  P  P17  1  0.736021  0.267991  0.380160  1
  P  P18  1  0.768587  0.261865  0.610772  1
  P  P19  1  0.768587  0.738135  0.110772  1
  H  H20  1  0.237553  0.441056  0.754439  1
  H  H21  1  0.237553  0.558944  0.254439  1
  H  H22  1  0.762447  0.441056  0.745561  1
  H  H23  1  0.762447  0.558944  0.245561  1
  O  O24  1  0.086803  0.407344  0.921690  1
  O  O25  1  0.086803  0.592656  0.421690  1
  O  O26  1  0.109481  0.891253  0.592720  1
  O  O27  1  0.237731  0.966562  0.920277  1
  O  O28  1  0.206782  0.255855  0.784051  1
  O  O29  1  0.109481  0.108747  0.092720  1
  O  O30  1  0.237731  0.033438  0.420277  1
  O  O31  1  0.285220  0.698253  0.722003  1
  O  O32  1  0.206782  0.744145  0.284051  1
  O  O33  1  0.258922  0.449032  0.577767  1
  O  O34  1  0.387371  0.411204  0.916554  1
  O  O35  1  0.285220  0.301747  0.222003  1
  O  O36  1  0.258922  0.550968  0.077767  1
  O  O37  1  0.412228  0.893584  0.590553  1
  O  O38  1  0.387371  0.588796  0.416554  1
  O  O39  1  0.587772  0.893584  0.909447  1
  O  O40  1  0.412228  0.106416  0.090553  1
  O  O41  1  0.612629  0.411204  0.583446  1
  O  O42  1  0.587772  0.106416  0.409447  1
  O  O43  1  0.741078  0.449032  0.922233  1
  O  O44  1  0.714780  0.698253  0.777997  1
  O  O45  1  0.612629  0.588796  0.083446  1
  O  O46  1  0.741078  0.550968  0.422233  1
  O  O47  1  0.793218  0.255855  0.715949  1
  O  O48  1  0.714780  0.301747  0.277997  1
  O  O49  1  0.762269  0.966562  0.579723  1
  O  O50  1  0.890519  0.891253  0.907280  1
  O  O51  1  0.793218  0.744145  0.215949  1
  O  O52  1  0.762269  0.033438  0.079723  1
  O  O53  1  0.890519  0.108747  0.407280  1
  O  O54  1  0.913197  0.407344  0.578310  1
  O  O55  1  0.913197  0.592656  0.078310  1
