# generated using pymatgen
data_Cs2ZrO3
_symmetry_space_group_name_H-M   'P 1'
_cell_length_a   6.95290929
_cell_length_b   6.95290929
_cell_length_c   6.02438192
_cell_angle_alpha   90.00000000
_cell_angle_beta   90.00000000
_cell_angle_gamma   111.42522516
_symmetry_Int_Tables_number   1
_chemical_formula_structural   Cs2ZrO3
_chemical_formula_sum   'Cs4 Zr2 O6'
_cell_volume   271.11051419
_cell_formula_units_Z   2
loop_
 _symmetry_equiv_pos_site_id
 _symmetry_equiv_pos_as_xyz
  1  'x, y, z'
loop_
 _atom_site_type_symbol
 _atom_site_label
 _atom_site_symmetry_multiplicity
 _atom_site_fract_x
 _atom_site_fract_y
 _atom_site_fract_z
 _atom_site_occupancy
  Cs  Cs0  1  0.483000  0.808679  0.250000  1
  Cs  Cs1  1  0.517000  0.191321  0.750000  1
  Cs  Cs2  1  0.191321  0.517000  0.750000  1
  Cs  Cs3  1  0.808679  0.483000  0.250000  1
  Zr  Zr4  1  0.083148  0.083148  0.250000  1
  Zr  Zr5  1  0.916852  0.916852  0.750000  1
  O  O6  1  0.668587  0.668587  0.750000  1
  O  O7  1  0.331413  0.331413  0.250000  1
  O  O8  1  0.882145  0.117855  0.500000  1
  O  O9  1  0.882145  0.117855  0.000000  1
  O  O10  1  0.117855  0.882145  0.500000  1
  O  O11  1  0.117855  0.882145  0.000000  1
