# generated using pymatgen
data_B2S3
_symmetry_space_group_name_H-M   'P 1'
_cell_length_a   8.37706360
_cell_length_b   8.37706360
_cell_length_c   8.37706360
_cell_angle_alpha   38.01418691
_cell_angle_beta   38.01418691
_cell_angle_gamma   38.01418691
_symmetry_Int_Tables_number   1
_chemical_formula_structural   B2S3
_chemical_formula_sum   'B4 S6'
_cell_volume   200.14767366
_cell_formula_units_Z   2
loop_
 _symmetry_equiv_pos_site_id
 _symmetry_equiv_pos_as_xyz
  1  'x, y, z'
loop_
 _atom_site_type_symbol
 _atom_site_label
 _atom_site_symmetry_multiplicity
 _atom_site_fract_x
 _atom_site_fract_y
 _atom_site_fract_z
 _atom_site_occupancy
  B  B0  1  0.583587  0.583587  0.583587  1
  B  B1  1  0.916413  0.916413  0.916413  1
  B  B2  1  0.083587  0.083587  0.083587  1
  B  B3  1  0.416413  0.416413  0.416413  1
  S  S4  1  0.250000  0.581665  0.918335  1
  S  S5  1  0.581665  0.918335  0.250000  1
  S  S6  1  0.918335  0.250000  0.581665  1
  S  S7  1  0.081665  0.750000  0.418335  1
  S  S8  1  0.418335  0.081665  0.750000  1
  S  S9  1  0.750000  0.418335  0.081665  1
