# generated using pymatgen
data_Fe6OF11
_symmetry_space_group_name_H-M   'P 1'
_cell_length_a   10.82140596
_cell_length_b   10.82140596
_cell_length_c   3.25262795
_cell_angle_alpha   90.00000000
_cell_angle_beta   90.00000000
_cell_angle_gamma   143.41934188
_symmetry_Int_Tables_number   1
_chemical_formula_structural   Fe6OF11
_chemical_formula_sum   'Fe6 O1 F11'
_cell_volume   226.99400192
_cell_formula_units_Z   1
loop_
 _symmetry_equiv_pos_site_id
 _symmetry_equiv_pos_as_xyz
  1  'x, y, z'
loop_
 _atom_site_type_symbol
 _atom_site_label
 _atom_site_symmetry_multiplicity
 _atom_site_fract_x
 _atom_site_fract_y
 _atom_site_fract_z
 _atom_site_occupancy
  Fe  Fe0  1  0.987838  0.987838  0.500000  1
  Fe  Fe1  1  0.527600  0.527600  1.000000  1
  Fe  Fe2  1  0.665328  0.331890  0.500000  1
  Fe  Fe3  1  0.833976  0.166017  0.000000  1
  Fe  Fe4  1  0.166017  0.833976  0.000000  1
  Fe  Fe5  1  0.331890  0.665328  0.500000  1
  O  O6  1  0.685638  0.685638  0.500000  1
  F  F7  1  0.964870  0.628532  0.500000  1
  F  F8  1  0.305259  0.305259  0.500000  1
  F  F9  1  0.592505  0.396137  0.000000  1
  F  F10  1  0.732535  0.264415  0.000000  1
  F  F11  1  0.072034  0.935291  0.000000  1
  F  F12  1  0.369036  0.032271  0.500000  1
  F  F13  1  0.628532  0.964870  0.500000  1
  F  F14  1  0.935291  0.072034  1.000000  1
  F  F15  1  0.264415  0.732535  0.000000  1
  F  F16  1  0.396137  0.592505  1.000000  1
  F  F17  1  0.032271  0.369036  0.500000  1
