# generated using pymatgen
data_LiV6O7F5
_symmetry_space_group_name_H-M   'P 1'
_cell_length_a   4.81681628
_cell_length_b   5.69474993
_cell_length_c   7.83075984
_cell_angle_alpha   85.14849840
_cell_angle_beta   89.54532934
_cell_angle_gamma   89.69249600
_symmetry_Int_Tables_number   1
_chemical_formula_structural   LiV6O7F5
_chemical_formula_sum   'Li1 V6 O7 F5'
_cell_volume   214.02345971
_cell_formula_units_Z   1
loop_
 _symmetry_equiv_pos_site_id
 _symmetry_equiv_pos_as_xyz
  1  'x, y, z'
loop_
 _atom_site_type_symbol
 _atom_site_label
 _atom_site_symmetry_multiplicity
 _atom_site_fract_x
 _atom_site_fract_y
 _atom_site_fract_z
 _atom_site_occupancy
  Li  Li0  1  0.499675  0.230299  0.764984  1
  V  V1  1  0.488037  0.516722  0.010552  1
  V  V2  1  0.525215  0.799658  0.649138  1
  V  V3  1  0.539315  0.171171  0.340121  1
  V  V4  1  0.988003  0.349697  0.674392  1
  V  V5  1  0.972655  0.662469  0.314742  1
  V  V6  1  0.983673  0.004478  0.017182  1
  O  O7  1  0.192426  0.714075  0.094893  1
  O  O8  1  0.315354  0.523763  0.763101  1
  O  O9  1  0.690530  0.469349  0.228740  1
  O  O10  1  0.691621  0.128565  0.577135  1
  O  O11  1  0.793008  0.972721  0.232823  1
  O  O12  1  0.797089  0.298111  0.901065  1
  O  O13  1  0.812931  0.629503  0.554375  1
  F  F14  1  0.197970  0.360821  0.430795  1
  F  F15  1  0.203561  0.027842  0.773805  1
  F  F16  1  0.298478  0.205941  0.109899  1
  F  F17  1  0.300607  0.864927  0.427682  1
  F  F18  1  0.696179  0.805689  0.894420  1
