# generated using pymatgen
data_Li2Cu(PO3)3
_symmetry_space_group_name_H-M   'P 1'
_cell_length_a   8.52369217
_cell_length_b   8.96627354
_cell_length_c   8.96752771
_cell_angle_alpha   90.00000000
_cell_angle_beta   90.00000000
_cell_angle_gamma   90.00000000
_symmetry_Int_Tables_number   1
_chemical_formula_structural   Li2Cu(PO3)3
_chemical_formula_sum   'Li8 Cu4 P12 O36'
_cell_volume   685.35008080
_cell_formula_units_Z   4
loop_
 _symmetry_equiv_pos_site_id
 _symmetry_equiv_pos_as_xyz
  1  'x, y, z'
loop_
 _atom_site_type_symbol
 _atom_site_label
 _atom_site_symmetry_multiplicity
 _atom_site_fract_x
 _atom_site_fract_y
 _atom_site_fract_z
 _atom_site_occupancy
  Li  Li0  1  0.860816  0.838211  0.175025  1
  Li  Li1  1  0.492258  0.951934  0.529903  1
  Li  Li2  1  0.007742  0.048066  0.029903  1
  Li  Li3  1  0.639184  0.161789  0.675025  1
  Li  Li4  1  0.139184  0.338211  0.324975  1
  Li  Li5  1  0.507742  0.451934  0.970097  1
  Li  Li6  1  0.992258  0.548066  0.470097  1
  Li  Li7  1  0.360816  0.661789  0.824975  1
  Cu  Cu8  1  0.651822  0.869392  0.895683  1
  Cu  Cu9  1  0.848178  0.130608  0.395683  1
  Cu  Cu10  1  0.348178  0.369392  0.604317  1
  Cu  Cu11  1  0.151822  0.630608  0.104317  1
  P  P12  1  0.794708  0.801363  0.564564  1
  P  P13  1  0.031426  0.816586  0.818699  1
  P  P14  1  0.185332  0.989297  0.307728  1
  P  P15  1  0.314668  0.010703  0.807728  1
  P  P16  1  0.468574  0.183414  0.318699  1
  P  P17  1  0.705292  0.198637  0.064564  1
  P  P18  1  0.205292  0.301363  0.935436  1
  P  P19  1  0.968574  0.316586  0.681301  1
  P  P20  1  0.814668  0.489297  0.192272  1
  P  P21  1  0.685332  0.510703  0.692272  1
  P  P22  1  0.531426  0.683414  0.181301  1
  P  P23  1  0.294708  0.698637  0.435436  1
  O  O24  1  0.952746  0.772293  0.661268  1
  O  O25  1  0.631254  0.811466  0.131833  1
  O  O26  1  0.844317  0.836559  0.409315  1
  O  O27  1  0.228299  0.870039  0.439240  1
  O  O28  1  0.908397  0.880792  0.922078  1
  O  O29  1  0.404564  0.883361  0.874283  1
  O  O30  1  0.116862  0.911538  0.173820  1
  O  O31  1  0.678700  0.899519  0.645840  1
  O  O32  1  0.138691  0.956567  0.765308  1
  O  O33  1  0.361309  0.043433  0.265308  1
  O  O34  1  0.821300  0.100481  0.145840  1
  O  O35  1  0.383138  0.088462  0.673820  1
  O  O36  1  0.095436  0.116639  0.374283  1
  O  O37  1  0.591603  0.119208  0.422078  1
  O  O38  1  0.271701  0.129961  0.939240  1
  O  O39  1  0.655683  0.163441  0.909315  1
  O  O40  1  0.868746  0.188534  0.631833  1
  O  O41  1  0.547254  0.227707  0.161268  1
  O  O42  1  0.047254  0.272293  0.838732  1
  O  O43  1  0.368746  0.311466  0.368167  1
  O  O44  1  0.155683  0.336559  0.090685  1
  O  O45  1  0.771701  0.370039  0.060760  1
  O  O46  1  0.091603  0.380792  0.577922  1
  O  O47  1  0.595436  0.383361  0.625717  1
  O  O48  1  0.883138  0.411538  0.326180  1
  O  O49  1  0.321300  0.399519  0.854160  1
  O  O50  1  0.861309  0.456567  0.734692  1
  O  O51  1  0.638691  0.543433  0.234692  1
  O  O52  1  0.178700  0.600481  0.354160  1
  O  O53  1  0.616862  0.588462  0.826180  1
  O  O54  1  0.904564  0.616639  0.125717  1
  O  O55  1  0.408397  0.619208  0.077922  1
  O  O56  1  0.728299  0.629961  0.560760  1
  O  O57  1  0.344317  0.663441  0.590685  1
  O  O58  1  0.131254  0.688534  0.868167  1
  O  O59  1  0.452746  0.727707  0.338732  1
