# generated using pymatgen
data_Ca10V6O25
_symmetry_space_group_name_H-M   'P 1'
_cell_length_a   10.06000700
_cell_length_b   10.06000700
_cell_length_c   6.95979499
_cell_angle_alpha   90.00000000
_cell_angle_beta   90.00000000
_cell_angle_gamma   120.00000000
_symmetry_Int_Tables_number   1
_chemical_formula_structural   Ca10V6O25
_chemical_formula_sum   'Ca10 V6 O25'
_cell_volume   609.99130514
_cell_formula_units_Z   1
loop_
 _symmetry_equiv_pos_site_id
 _symmetry_equiv_pos_as_xyz
  1  'x, y, z'
loop_
 _atom_site_type_symbol
 _atom_site_label
 _atom_site_symmetry_multiplicity
 _atom_site_fract_x
 _atom_site_fract_y
 _atom_site_fract_z
 _atom_site_occupancy
  Ca  Ca0  1  0.209030  0.982512  0.751859  1
  Ca  Ca1  1  0.725256  0.009309  0.249110  1
  Ca  Ca2  1  0.773482  0.790970  0.751859  1
  Ca  Ca3  1  0.284053  0.274744  0.249110  1
  Ca  Ca4  1  0.017488  0.226518  0.751859  1
  Ca  Ca5  1  0.990691  0.715947  0.249110  1
  Ca  Ca6  1  0.666667  0.333333  0.998070  1
  Ca  Ca7  1  0.333333  0.666667  0.995013  1
  Ca  Ca8  1  0.666667  0.333333  0.511847  1
  Ca  Ca9  1  0.333333  0.666667  0.495612  1
  V  V10  1  0.971834  0.356978  0.250336  1
  V  V11  1  0.030770  0.620345  0.748299  1
  V  V12  1  0.385144  0.028166  0.250336  1
  V  V13  1  0.589575  0.969230  0.748299  1
  V  V14  1  0.643022  0.614856  0.250336  1
  V  V15  1  0.379655  0.410425  0.748299  1
  O  O16  1  0.260623  0.352912  0.948874  1
  O  O17  1  0.761026  0.667113  0.051450  1
  O  O18  1  0.092289  0.739377  0.948874  1
  O  O19  1  0.906087  0.238974  0.051450  1
  O  O20  1  0.647088  0.907711  0.948874  1
  O  O21  1  0.332887  0.093913  0.051450  1
  O  O22  1  0.473782  0.611086  0.741745  1
  O  O23  1  0.547665  0.411102  0.264103  1
  O  O24  1  0.137304  0.526218  0.741745  1
  O  O25  1  0.863437  0.452335  0.264103  1
  O  O26  1  0.388914  0.862696  0.741745  1
  O  O27  1  0.588898  0.136563  0.264103  1
  O  O28  1  0.086945  0.743761  0.552964  1
  O  O29  1  0.919415  0.225574  0.435307  1
  O  O30  1  0.656816  0.913055  0.552964  1
  O  O31  1  0.306159  0.080585  0.435307  1
  O  O32  1  0.256239  0.343184  0.552964  1
  O  O33  1  0.774426  0.693841  0.435307  1
  O  O34  1  0.834315  0.495383  0.751747  1
  O  O35  1  0.167654  0.490276  0.246576  1
  O  O36  1  0.661068  0.165685  0.751747  1
  O  O37  1  0.322622  0.832346  0.246576  1
  O  O38  1  0.504617  0.338932  0.751747  1
  O  O39  1  0.509724  0.677378  0.246576  1
  O  O40  1  0.000000  0.000000  0.774099  1
