# generated using pymatgen
data_LiCrP2O7
_symmetry_space_group_name_H-M   'P 1'
_cell_length_a   6.99941522
_cell_length_b   8.44954498
_cell_length_c   9.18720277
_cell_angle_alpha   90.00000000
_cell_angle_beta   112.20454458
_cell_angle_gamma   90.00000000
_symmetry_Int_Tables_number   1
_chemical_formula_structural   LiCrP2O7
_chemical_formula_sum   'Li4 Cr4 P8 O28'
_cell_volume   503.05400261
_cell_formula_units_Z   4
loop_
 _symmetry_equiv_pos_site_id
 _symmetry_equiv_pos_as_xyz
  1  'x, y, z'
loop_
 _atom_site_type_symbol
 _atom_site_label
 _atom_site_symmetry_multiplicity
 _atom_site_fract_x
 _atom_site_fract_y
 _atom_site_fract_z
 _atom_site_occupancy
  Li  Li0  1  0.200668  0.572674  0.095394  1
  Li  Li1  1  0.799332  0.072674  0.404606  1
  Li  Li2  1  0.200668  0.927326  0.595394  1
  Li  Li3  1  0.799332  0.427326  0.904606  1
  Cr  Cr4  1  0.303454  0.933696  0.183642  1
  Cr  Cr5  1  0.696546  0.433696  0.316358  1
  Cr  Cr6  1  0.303454  0.566304  0.683642  1
  Cr  Cr7  1  0.696546  0.066304  0.816358  1
  P  P8  1  0.527026  0.717854  0.466433  1
  P  P9  1  0.472974  0.217854  0.033567  1
  P  P10  1  0.936093  0.734365  0.758134  1
  P  P11  1  0.063907  0.234365  0.741866  1
  P  P12  1  0.936093  0.765635  0.258134  1
  P  P13  1  0.063907  0.265635  0.241866  1
  P  P14  1  0.527026  0.782146  0.966433  1
  P  P15  1  0.472974  0.282146  0.533567  1
  O  O16  1  0.494292  0.580579  0.350352  1
  O  O17  1  0.520873  0.880156  0.385937  1
  O  O18  1  0.375058  0.777008  0.051538  1
  O  O19  1  0.624942  0.277008  0.448462  1
  O  O20  1  0.479127  0.380156  0.114063  1
  O  O21  1  0.753112  0.689886  0.591671  1
  O  O22  1  0.505708  0.080579  0.149648  1
  O  O23  1  0.875683  0.241256  0.791186  1
  O  O24  1  0.884532  0.899179  0.804935  1
  O  O25  1  0.955216  0.607687  0.877009  1
  O  O26  1  0.753112  0.810114  0.091671  1
  O  O27  1  0.044784  0.107687  0.622991  1
  O  O28  1  0.875683  0.258744  0.291186  1
  O  O29  1  0.884532  0.600821  0.304935  1
  O  O30  1  0.115468  0.399179  0.695065  1
  O  O31  1  0.124317  0.741256  0.708814  1
  O  O32  1  0.955216  0.892313  0.377009  1
  O  O33  1  0.246888  0.189886  0.908329  1
  O  O34  1  0.044784  0.392313  0.122991  1
  O  O35  1  0.115468  0.100821  0.195065  1
  O  O36  1  0.124317  0.758744  0.208814  1
  O  O37  1  0.494292  0.919421  0.850352  1
  O  O38  1  0.246888  0.310114  0.408329  1
  O  O39  1  0.520873  0.619844  0.885937  1
  O  O40  1  0.375058  0.722992  0.551538  1
  O  O41  1  0.624942  0.222992  0.948462  1
  O  O42  1  0.479127  0.119844  0.614063  1
  O  O43  1  0.505708  0.419421  0.649648  1
