# generated using pymatgen
data_NaLi2MnPCO7
_symmetry_space_group_name_H-M   'P 1'
_cell_length_a   5.01660180
_cell_length_b   6.74993290
_cell_length_c   8.65608574
_cell_angle_alpha   90.00000000
_cell_angle_beta   91.89512782
_cell_angle_gamma   90.00000000
_symmetry_Int_Tables_number   1
_chemical_formula_structural   NaLi2MnPCO7
_chemical_formula_sum   'Na2 Li4 Mn2 P2 C2 O14'
_cell_volume   292.94967766
_cell_formula_units_Z   2
loop_
 _symmetry_equiv_pos_site_id
 _symmetry_equiv_pos_as_xyz
  1  'x, y, z'
loop_
 _atom_site_type_symbol
 _atom_site_label
 _atom_site_symmetry_multiplicity
 _atom_site_fract_x
 _atom_site_fract_y
 _atom_site_fract_z
 _atom_site_occupancy
  Na  Na0  1  0.747872  0.000221  0.251332  1
  Na  Na1  1  0.252128  0.500221  0.748668  1
  Li  Li2  1  0.252220  0.746458  0.086364  1
  Li  Li3  1  0.768906  0.523111  0.268106  1
  Li  Li4  1  0.231094  0.023111  0.731894  1
  Li  Li5  1  0.747780  0.246458  0.913636  1
  Mn  Mn6  1  0.223398  0.255630  0.354836  1
  Mn  Mn7  1  0.776602  0.755630  0.645164  1
  P  P8  1  0.292765  0.751048  0.404731  1
  P  P9  1  0.707235  0.251048  0.595269  1
  C  C10  1  0.271775  0.242265  0.044126  1
  C  C11  1  0.728225  0.742265  0.955874  1
  O  O12  1  0.669570  0.722030  0.099344  1
  O  O13  1  0.024493  0.246406  0.086813  1
  O  O14  1  0.464827  0.259927  0.147532  1
  O  O15  1  0.220750  0.935404  0.303801  1
  O  O16  1  0.176533  0.571217  0.312535  1
  O  O17  1  0.603251  0.730675  0.420644  1
  O  O18  1  0.814162  0.265612  0.428958  1
  O  O19  1  0.185838  0.765612  0.571042  1
  O  O20  1  0.396749  0.230675  0.579356  1
  O  O21  1  0.779250  0.435404  0.696199  1
  O  O22  1  0.823467  0.071217  0.687465  1
  O  O23  1  0.535173  0.759927  0.852468  1
  O  O24  1  0.975507  0.746406  0.913187  1
  O  O25  1  0.330430  0.222030  0.900656  1
