# generated using pymatgen
data_Li2Mn2P2(H4O5)3
_symmetry_space_group_name_H-M   'P 1'
_cell_length_a   11.46016057
_cell_length_b   11.46016057
_cell_length_c   12.17377323
_cell_angle_alpha   86.05775983
_cell_angle_beta   93.94224017
_cell_angle_gamma   155.33337826
_symmetry_Int_Tables_number   1
_chemical_formula_structural   Li2Mn2P2(H4O5)3
_chemical_formula_sum   'Li4 Mn4 P4 H24 O30'
_cell_volume   665.60435069
_cell_formula_units_Z   2
loop_
 _symmetry_equiv_pos_site_id
 _symmetry_equiv_pos_as_xyz
  1  'x, y, z'
loop_
 _atom_site_type_symbol
 _atom_site_label
 _atom_site_symmetry_multiplicity
 _atom_site_fract_x
 _atom_site_fract_y
 _atom_site_fract_z
 _atom_site_occupancy
  Li  Li0  1  0.238539  0.025721  0.929169  1
  Li  Li1  1  0.974279  0.761461  0.429169  1
  Li  Li2  1  0.027659  0.252409  0.569965  1
  Li  Li3  1  0.747591  0.972341  0.069965  1
  Mn  Mn4  1  0.425051  0.930436  0.876314  1
  Mn  Mn5  1  0.925018  0.431645  0.622267  1
  Mn  Mn6  1  0.069564  0.574949  0.376314  1
  Mn  Mn7  1  0.568355  0.074982  0.122267  1
  P  P8  1  0.821077  0.495879  0.786943  1
  P  P9  1  0.504121  0.178923  0.286943  1
  P  P10  1  0.491125  0.828675  0.711549  1
  P  P11  1  0.171325  0.508875  0.211549  1
  H  H12  1  0.469125  0.439084  0.850731  1
  H  H13  1  0.839001  0.774159  0.770364  1
  H  H14  1  0.560916  0.530875  0.350731  1
  H  H15  1  0.016403  0.888806  0.625265  1
  H  H16  1  0.225841  0.160999  0.270364  1
  H  H17  1  0.111194  0.983597  0.125265  1
  H  H18  1  0.269365  0.040208  0.606380  1
  H  H19  1  0.959792  0.730635  0.106380  1
  H  H20  1  0.899855  0.371528  0.934149  1
  H  H21  1  0.364312  0.905835  0.566763  1
  H  H22  1  0.628472  0.100145  0.434149  1
  H  H23  1  0.094165  0.635688  0.066763  1
  H  H24  1  0.027148  0.267229  0.890670  1
  H  H25  1  0.732771  0.972852  0.390670  1
  H  H26  1  0.883992  0.018871  0.874740  1
  H  H27  1  0.763463  0.845251  0.726249  1
  H  H28  1  0.981129  0.116008  0.374740  1
  H  H29  1  0.432202  0.474094  0.650396  1
  H  H30  1  0.262142  0.276617  0.942703  1
  H  H31  1  0.154749  0.236537  0.226249  1
  H  H32  1  0.268897  0.263828  0.559961  1
  H  H33  1  0.525906  0.567798  0.150396  1
  H  H34  1  0.723383  0.737858  0.442703  1
  H  H35  1  0.736172  0.731103  0.059961  1
  O  O36  1  0.350002  0.291346  0.907656  1
  O  O37  1  0.708654  0.649998  0.407656  1
  O  O38  1  0.147505  0.987813  0.568737  1
  O  O39  1  0.936148  0.718645  0.813946  1
  O  O40  1  0.012187  0.852495  0.068737  1
  O  O41  1  0.749791  0.421699  0.661650  1
  O  O42  1  0.281355  0.063852  0.313946  1
  O  O43  1  0.558722  0.220270  0.856271  1
  O  O44  1  0.578301  0.250209  0.161650  1
  O  O45  1  0.779730  0.441278  0.356271  1
  O  O46  1  0.048836  0.602276  0.809757  1
  O  O47  1  0.183579  0.755692  0.529545  1
  O  O48  1  0.397724  0.951164  0.309757  1
  O  O49  1  0.747686  0.187699  0.970033  1
  O  O50  1  0.244308  0.816421  0.029545  1
  O  O51  1  0.596356  0.055666  0.688723  1
  O  O52  1  0.812301  0.252314  0.470033  1
  O  O53  1  0.944334  0.403644  0.188723  1
  O  O54  1  0.216533  0.566669  0.641928  1
  O  O55  1  0.416274  0.756591  0.836569  1
  O  O56  1  0.433331  0.783467  0.141928  1
  O  O57  1  0.716080  0.946717  0.684427  1
  O  O58  1  0.243409  0.583726  0.336569  1
  O  O59  1  0.980528  0.150446  0.930231  1
  O  O60  1  0.053283  0.283920  0.184427  1
  O  O61  1  0.849554  0.019472  0.430231  1
  O  O62  1  0.280943  0.349465  0.594618  1
  O  O63  1  0.694975  0.703243  0.749841  1
  O  O64  1  0.650535  0.719057  0.094618  1
  O  O65  1  0.296757  0.305025  0.249841  1
