# generated using pymatgen
data_LiFe2(BO3)2
_symmetry_space_group_name_H-M   'P 1'
_cell_length_a   5.24859023
_cell_length_b   9.14136440
_cell_length_c   11.30782180
_cell_angle_alpha   112.71046367
_cell_angle_beta   103.35784091
_cell_angle_gamma   90.05468278
_symmetry_Int_Tables_number   1
_chemical_formula_structural   LiFe2(BO3)2
_chemical_formula_sum   'Li4 Fe8 B8 O24'
_cell_volume   484.47416409
_cell_formula_units_Z   4
loop_
 _symmetry_equiv_pos_site_id
 _symmetry_equiv_pos_as_xyz
  1  'x, y, z'
loop_
 _atom_site_type_symbol
 _atom_site_label
 _atom_site_symmetry_multiplicity
 _atom_site_fract_x
 _atom_site_fract_y
 _atom_site_fract_z
 _atom_site_occupancy
  Li  Li0  1  0.381588  0.724914  0.087480  1
  Li  Li1  1  0.827036  0.494873  0.345979  1
  Li  Li2  1  0.322131  0.996833  0.342896  1
  Li  Li3  1  0.604784  0.243728  0.833285  1
  Fe  Fe4  1  0.649486  0.647863  0.628016  1
  Fe  Fe5  1  0.386856  0.073673  0.118320  1
  Fe  Fe6  1  0.840901  0.844560  0.379055  1
  Fe  Fe7  1  0.111545  0.442982  0.859020  1
  Fe  Fe8  1  0.895548  0.559493  0.119503  1
  Fe  Fe9  1  0.131039  0.146659  0.619565  1
  Fe  Fe10  1  0.334841  0.348878  0.373637  1
  Fe  Fe11  1  0.621774  0.929018  0.870696  1
  B  B12  1  0.638704  0.316907  0.621478  1
  B  B13  1  0.394267  0.405364  0.128126  1
  B  B14  1  0.843125  0.181307  0.368361  1
  B  B15  1  0.107008  0.109998  0.872955  1
  B  B16  1  0.149357  0.810633  0.622475  1
  B  B17  1  0.889773  0.893700  0.123581  1
  B  B18  1  0.346780  0.681806  0.368603  1
  B  B19  1  0.608410  0.600879  0.876491  1
  O  O20  1  0.158092  0.915276  0.138396  1
  O  O21  1  0.290279  0.291226  0.161019  1
  O  O22  1  0.235088  0.507054  0.085602  1
  O  O23  1  0.459558  0.812191  0.361972  1
  O  O24  1  0.498516  0.578944  0.412981  1
  O  O25  1  0.566365  0.146053  0.324300  1
  O  O26  1  0.911388  0.320493  0.653168  1
  O  O27  1  0.659719  0.423672  0.142386  1
  O  O28  1  0.785926  0.774330  0.154277  1
  O  O29  1  0.037327  0.927047  0.580876  1
  O  O30  1  0.990837  0.689416  0.616846  1
  O  O31  1  0.715735  0.986268  0.081709  1
  O  O32  1  0.277326  0.021726  0.927284  1
  O  O33  1  0.960801  0.311458  0.366552  1
  O  O34  1  0.995261  0.075721  0.412927  1
  O  O35  1  0.222661  0.208665  0.824475  1
  O  O36  1  0.364518  0.621139  0.897105  1
  O  O37  1  0.069452  0.647065  0.325020  1
  O  O38  1  0.421958  0.818738  0.661938  1
  O  O39  1  0.521931  0.426861  0.576129  1
  O  O40  1  0.491093  0.206501  0.638637  1
  O  O41  1  0.757880  0.489018  0.915839  1
  O  O42  1  0.725002  0.690745  0.824354  1
  O  O43  1  0.847257  0.103469  0.867809  1
