# generated using pymatgen
data_Rb3PdF5
_symmetry_space_group_name_H-M   'P 1'
_cell_length_a   7.61217891
_cell_length_b   7.61217891
_cell_length_c   6.54584899
_cell_angle_alpha   90.00000000
_cell_angle_beta   90.00000000
_cell_angle_gamma   90.00000000
_symmetry_Int_Tables_number   1
_chemical_formula_structural   Rb3PdF5
_chemical_formula_sum   'Rb6 Pd2 F10'
_cell_volume   379.30097243
_cell_formula_units_Z   2
loop_
 _symmetry_equiv_pos_site_id
 _symmetry_equiv_pos_as_xyz
  1  'x, y, z'
loop_
 _atom_site_type_symbol
 _atom_site_label
 _atom_site_symmetry_multiplicity
 _atom_site_fract_x
 _atom_site_fract_y
 _atom_site_fract_z
 _atom_site_occupancy
  Rb  Rb0  1  0.000000  0.000000  0.000000  1
  Rb  Rb1  1  0.500000  0.500000  0.000000  1
  Rb  Rb2  1  0.323703  0.823703  0.500000  1
  Rb  Rb3  1  0.823703  0.676297  0.500000  1
  Rb  Rb4  1  0.176297  0.323703  0.500000  1
  Rb  Rb5  1  0.676297  0.176297  0.500000  1
  Pd  Pd6  1  0.500000  0.000000  0.000000  1
  Pd  Pd7  1  0.000000  0.500000  0.000000  1
  F  F8  1  0.132195  0.632195  0.787093  1
  F  F9  1  0.867805  0.367805  0.787093  1
  F  F10  1  0.367805  0.132195  0.787093  1
  F  F11  1  0.632195  0.867805  0.787093  1
  F  F12  1  0.132195  0.632195  0.212907  1
  F  F13  1  0.632195  0.867805  0.212907  1
  F  F14  1  0.367805  0.132195  0.212907  1
  F  F15  1  0.867805  0.367805  0.212907  1
  F  F16  1  0.000000  0.000000  0.500000  1
  F  F17  1  0.500000  0.500000  0.500000  1
