# generated using pymatgen
data_La2PC
_symmetry_space_group_name_H-M   'P 1'
_cell_length_a   8.89336670
_cell_length_b   8.92310292
_cell_length_c   9.05397750
_cell_angle_alpha   90.19049605
_cell_angle_beta   90.11835407
_cell_angle_gamma   90.27046076
_symmetry_Int_Tables_number   1
_chemical_formula_structural   La2PC
_chemical_formula_sum   'La16 P8 C8'
_cell_volume   718.47776713
_cell_formula_units_Z   8
loop_
 _symmetry_equiv_pos_site_id
 _symmetry_equiv_pos_as_xyz
  1  'x, y, z'
loop_
 _atom_site_type_symbol
 _atom_site_label
 _atom_site_symmetry_multiplicity
 _atom_site_fract_x
 _atom_site_fract_y
 _atom_site_fract_z
 _atom_site_occupancy
  La  La0  1  0.821803  0.807889  0.207735  1
  La  La1  1  0.063527  0.432236  0.044208  1
  La  La2  1  0.822710  0.695400  0.792048  1
  La  La3  1  0.938085  0.049029  0.563238  1
  La  La4  1  0.458705  0.938314  0.929274  1
  La  La5  1  0.944126  0.446235  0.448830  1
  La  La6  1  0.314501  0.205664  0.320730  1
  La  La7  1  0.702560  0.305102  0.813962  1
  La  La8  1  0.571349  0.940767  0.560862  1
  La  La9  1  0.290164  0.327484  0.692007  1
  La  La10  1  0.689209  0.179148  0.183258  1
  La  La11  1  0.432677  0.562474  0.068896  1
  La  La12  1  0.185323  0.692155  0.689755  1
  La  La13  1  0.189399  0.793298  0.323919  1
  La  La14  1  0.041904  0.061698  0.929639  1
  La  La15  1  0.547925  0.571585  0.441491  1
  P  P16  1  0.258917  0.005071  0.624973  1
  P  P17  1  0.376872  0.245392  0.999607  1
  P  P18  1  0.501361  0.628201  0.758298  1
  P  P19  1  0.499380  0.878657  0.246519  1
  P  P20  1  0.128391  0.754543  0.002850  1
  P  P21  1  0.753683  0.500532  0.125373  1
  P  P22  1  0.005855  0.124293  0.253029  1
  P  P23  1  0.625575  0.259366  0.500064  1
  C  C24  1  0.748185  0.992271  0.800426  1
  C  C25  1  0.977685  0.449567  0.749922  1
  C  C26  1  0.947685  0.751791  0.484141  1
  C  C27  1  0.997762  0.297443  0.752090  1
  C  C28  1  0.745694  0.025025  0.947780  1
  C  C29  1  0.796633  0.725156  0.495031  1
  C  C30  1  0.247016  0.477713  0.449372  1
  C  C31  1  0.250340  0.501501  0.300681  1
