# generated using pymatgen
data_Fe9Cu3O16
_symmetry_space_group_name_H-M   'P 1'
_cell_length_a   5.85702378
_cell_length_b   5.87923874
_cell_length_c   8.33928632
_cell_angle_alpha   90.00000000
_cell_angle_beta   90.00000000
_cell_angle_gamma   90.00000000
_symmetry_Int_Tables_number   1
_chemical_formula_structural   Fe9Cu3O16
_chemical_formula_sum   'Fe9 Cu3 O16'
_cell_volume   287.16199947
_cell_formula_units_Z   1
loop_
 _symmetry_equiv_pos_site_id
 _symmetry_equiv_pos_as_xyz
  1  'x, y, z'
loop_
 _atom_site_type_symbol
 _atom_site_label
 _atom_site_symmetry_multiplicity
 _atom_site_fract_x
 _atom_site_fract_y
 _atom_site_fract_z
 _atom_site_occupancy
  Fe  Fe0  1  0.500000  0.500000  0.997506  1
  Fe  Fe1  1  0.754460  0.000000  0.122558  1
  Fe  Fe2  1  0.245540  0.000000  0.122558  1
  Fe  Fe3  1  0.500000  0.752571  0.377513  1
  Fe  Fe4  1  0.500000  0.247429  0.377513  1
  Fe  Fe5  1  0.249772  0.500000  0.625921  1
  Fe  Fe6  1  0.750228  0.500000  0.625921  1
  Fe  Fe7  1  0.000000  0.754961  0.875955  1
  Fe  Fe8  1  0.000000  0.245039  0.875955  1
  Cu  Cu9  1  0.000000  0.500000  0.253365  1
  Cu  Cu10  1  0.000000  0.000000  0.501740  1
  Cu  Cu11  1  0.500000  0.000000  0.747056  1
  O  O12  1  0.000000  0.225877  0.109280  1
  O  O13  1  0.000000  0.774123  0.109280  1
  O  O14  1  0.500000  0.769609  0.128066  1
  O  O15  1  0.500000  0.230391  0.128066  1
  O  O16  1  0.726870  0.000000  0.356628  1
  O  O17  1  0.273130  0.000000  0.356628  1
  O  O18  1  0.271642  0.500000  0.391358  1
  O  O19  1  0.728358  0.500000  0.391358  1
  O  O20  1  0.500000  0.278163  0.611242  1
  O  O21  1  0.500000  0.721837  0.611242  1
  O  O22  1  0.000000  0.726327  0.642216  1
  O  O23  1  0.000000  0.273673  0.642216  1
  O  O24  1  0.229916  0.500000  0.866455  1
  O  O25  1  0.770084  0.500000  0.866455  1
  O  O26  1  0.778505  0.000000  0.887618  1
  O  O27  1  0.221495  0.000000  0.887618  1
