# generated using pymatgen
data_LiMn2(BO3)2
_symmetry_space_group_name_H-M   'P 1'
_cell_length_a   5.81930278
_cell_length_b   9.23018551
_cell_length_c   9.87394219
_cell_angle_alpha   80.32905173
_cell_angle_beta   80.64460604
_cell_angle_gamma   75.41526943
_symmetry_Int_Tables_number   1
_chemical_formula_structural   LiMn2(BO3)2
_chemical_formula_sum   'Li4 Mn8 B8 O24'
_cell_volume   501.94121977
_cell_formula_units_Z   4
loop_
 _symmetry_equiv_pos_site_id
 _symmetry_equiv_pos_as_xyz
  1  'x, y, z'
loop_
 _atom_site_type_symbol
 _atom_site_label
 _atom_site_symmetry_multiplicity
 _atom_site_fract_x
 _atom_site_fract_y
 _atom_site_fract_z
 _atom_site_occupancy
  Li  Li0  1  0.285144  0.807453  0.885338  1
  Li  Li1  1  0.714856  0.192547  0.114662  1
  Li  Li2  1  0.442738  0.691189  0.365908  1
  Li  Li3  1  0.557262  0.308811  0.634092  1
  Mn  Mn4  1  0.889422  0.408531  0.861771  1
  Mn  Mn5  1  0.875577  0.098753  0.375967  1
  Mn  Mn6  1  0.344605  0.130331  0.895875  1
  Mn  Mn7  1  0.110578  0.591469  0.138229  1
  Mn  Mn8  1  0.379587  0.357434  0.374717  1
  Mn  Mn9  1  0.124423  0.901247  0.624033  1
  Mn  Mn10  1  0.655395  0.869669  0.104125  1
  Mn  Mn11  1  0.620413  0.642566  0.625283  1
  B  B12  1  0.884085  0.054796  0.873149  1
  B  B13  1  0.844837  0.443306  0.392528  1
  B  B14  1  0.364051  0.471589  0.881136  1
  B  B15  1  0.115915  0.945204  0.126851  1
  B  B16  1  0.403720  0.026682  0.351125  1
  B  B17  1  0.155163  0.556694  0.607472  1
  B  B18  1  0.635949  0.528411  0.118864  1
  B  B19  1  0.596280  0.973318  0.648875  1
  O  O20  1  0.001346  0.172789  0.848228  1
  O  O21  1  0.769219  0.639508  0.090900  1
  O  O22  1  0.024921  0.078211  0.179345  1
  O  O23  1  0.746768  0.578708  0.439024  1
  O  O24  1  0.975079  0.921789  0.820655  1
  O  O25  1  0.055318  0.425339  0.298065  1
  O  O26  1  0.801389  0.945905  0.551049  1
  O  O27  1  0.230781  0.360492  0.909100  1
  O  O28  1  0.998654  0.827211  0.151772  1
  O  O29  1  0.198611  0.054095  0.448951  1
  O  O30  1  0.944682  0.574661  0.701935  1
  O  O31  1  0.290909  0.599824  0.941377  1
  O  O32  1  0.253232  0.421292  0.560976  1
  O  O33  1  0.569786  0.446667  0.782293  1
  O  O34  1  0.323804  0.927298  0.028462  1
  O  O35  1  0.530950  0.143263  0.314107  1
  O  O36  1  0.266786  0.678866  0.570917  1
  O  O37  1  0.676196  0.072702  0.971538  1
  O  O38  1  0.430214  0.553333  0.217707  1
  O  O39  1  0.521214  0.105481  0.700989  1
  O  O40  1  0.709091  0.400176  0.058623  1
  O  O41  1  0.478786  0.894519  0.299011  1
  O  O42  1  0.733214  0.321134  0.429083  1
  O  O43  1  0.469050  0.856737  0.685893  1
