# generated using pymatgen
data_LiMn3(BO3)3
_symmetry_space_group_name_H-M   'P 1'
_cell_length_a   5.97426387
_cell_length_b   7.82076758
_cell_length_c   9.10451548
_cell_angle_alpha   110.44733678
_cell_angle_beta   107.88415543
_cell_angle_gamma   97.97889416
_symmetry_Int_Tables_number   1
_chemical_formula_structural   LiMn3(BO3)3
_chemical_formula_sum   'Li2 Mn6 B6 O18'
_cell_volume   364.59945478
_cell_formula_units_Z   2
loop_
 _symmetry_equiv_pos_site_id
 _symmetry_equiv_pos_as_xyz
  1  'x, y, z'
loop_
 _atom_site_type_symbol
 _atom_site_label
 _atom_site_symmetry_multiplicity
 _atom_site_fract_x
 _atom_site_fract_y
 _atom_site_fract_z
 _atom_site_occupancy
  Li  Li0  1  0.779452  0.455065  0.614615  1
  Li  Li1  1  0.220548  0.544935  0.385385  1
  Mn  Mn2  1  0.361824  0.104822  0.252731  1
  Mn  Mn3  1  0.942972  0.184715  0.396421  1
  Mn  Mn4  1  0.299360  0.554121  0.064537  1
  Mn  Mn5  1  0.700640  0.445879  0.935463  1
  Mn  Mn6  1  0.057028  0.815285  0.603579  1
  Mn  Mn7  1  0.638176  0.895178  0.747269  1
  B  B8  1  0.050642  0.798758  0.932619  1
  B  B9  1  0.286964  0.531816  0.722338  1
  B  B10  1  0.585410  0.858841  0.393060  1
  B  B11  1  0.414590  0.141159  0.606940  1
  B  B12  1  0.713036  0.468184  0.277662  1
  B  B13  1  0.949358  0.201242  0.067381  1
  O  O14  1  0.229579  0.963638  0.010269  1
  O  O15  1  0.880383  0.745446  0.765456  1
  O  O16  1  0.339458  0.654388  0.649969  1
  O  O17  1  0.613437  0.975616  0.309526  1
  O  O18  1  0.084240  0.384465  0.645245  1
  O  O19  1  0.409892  0.686738  0.310837  1
  O  O20  1  0.443261  0.576968  0.894632  1
  O  O21  1  0.740238  0.918617  0.560342  1
  O  O22  1  0.969717  0.335429  0.000455  1
  O  O23  1  0.030283  0.664571  0.999545  1
  O  O24  1  0.259762  0.081383  0.439658  1
  O  O25  1  0.556739  0.423032  0.105368  1
  O  O26  1  0.590108  0.313262  0.689163  1
  O  O27  1  0.915760  0.615535  0.354755  1
  O  O28  1  0.386563  0.024384  0.690474  1
  O  O29  1  0.660542  0.345612  0.350031  1
  O  O30  1  0.119617  0.254554  0.234544  1
  O  O31  1  0.770421  0.036362  0.989731  1
