# generated using pymatgen
data_K2Au3
_symmetry_space_group_name_H-M   'P 1'
_cell_length_a   6.32970547
_cell_length_b   6.32970547
_cell_length_c   6.32970547
_cell_angle_alpha   133.79174010
_cell_angle_beta   127.42828806
_cell_angle_gamma   72.55398253
_symmetry_Int_Tables_number   1
_chemical_formula_structural   K2Au3
_chemical_formula_sum   'K2 Au3'
_cell_volume   142.10987432
_cell_formula_units_Z   1
loop_
 _symmetry_equiv_pos_site_id
 _symmetry_equiv_pos_as_xyz
  1  'x, y, z'
loop_
 _atom_site_type_symbol
 _atom_site_label
 _atom_site_symmetry_multiplicity
 _atom_site_fract_x
 _atom_site_fract_y
 _atom_site_fract_z
 _atom_site_occupancy
  K  K0  1  0.693948  0.693948  0.000000  1
  K  K1  1  0.306052  0.306052  0.000000  1
  Au  Au2  1  1.000000  0.500000  0.500000  1
  Au  Au3  1  0.254359  0.000000  0.254359  1
  Au  Au4  1  0.745641  0.000000  0.745641  1
