# generated using pymatgen
data_SiRh
_symmetry_space_group_name_H-M   'P 1'
_cell_length_a   3.11072036
_cell_length_b   5.59549383
_cell_length_c   6.43825050
_cell_angle_alpha   90.00000000
_cell_angle_beta   90.00000000
_cell_angle_gamma   90.00000000
_symmetry_Int_Tables_number   1
_chemical_formula_structural   SiRh
_chemical_formula_sum   'Si4 Rh4'
_cell_volume   112.06429496
_cell_formula_units_Z   4
loop_
 _symmetry_equiv_pos_site_id
 _symmetry_equiv_pos_as_xyz
  1  'x, y, z'
loop_
 _atom_site_type_symbol
 _atom_site_label
 _atom_site_symmetry_multiplicity
 _atom_site_fract_x
 _atom_site_fract_y
 _atom_site_fract_z
 _atom_site_occupancy
  Si  Si0  1  0.250000  0.684784  0.056218  1
  Si  Si1  1  0.750000  0.315216  0.943782  1
  Si  Si2  1  0.250000  0.184784  0.443782  1
  Si  Si3  1  0.750000  0.815216  0.556218  1
  Rh  Rh4  1  0.250000  0.502878  0.702653  1
  Rh  Rh5  1  0.750000  0.497122  0.297347  1
  Rh  Rh6  1  0.250000  0.002878  0.797347  1
  Rh  Rh7  1  0.750000  0.997122  0.202653  1
