# generated using pymatgen
data_Ca4As2O
_symmetry_space_group_name_H-M   'P 1'
_cell_length_a   8.39459945
_cell_length_b   8.39459945
_cell_length_c   8.39459945
_cell_angle_alpha   148.43415362
_cell_angle_beta   148.43415362
_cell_angle_gamma   45.24487435
_symmetry_Int_Tables_number   1
_chemical_formula_structural   Ca4As2O
_chemical_formula_sum   'Ca4 As2 O1'
_cell_volume   161.58706206
_cell_formula_units_Z   1
loop_
 _symmetry_equiv_pos_site_id
 _symmetry_equiv_pos_as_xyz
  1  'x, y, z'
loop_
 _atom_site_type_symbol
 _atom_site_label
 _atom_site_symmetry_multiplicity
 _atom_site_fract_x
 _atom_site_fract_y
 _atom_site_fract_z
 _atom_site_occupancy
  Ca  Ca0  1  0.671692  0.671692  0.000000  1
  Ca  Ca1  1  0.328308  0.328308  0.000000  1
  Ca  Ca2  1  0.000000  0.500000  0.500000  1
  Ca  Ca3  1  0.500000  1.000000  0.500000  1
  As  As4  1  0.862826  0.862826  0.000000  1
  As  As5  1  0.137174  0.137174  0.000000  1
  O  O6  1  0.500000  0.500000  0.000000  1
