# generated using pymatgen
data_Fe4O5F3
_symmetry_space_group_name_H-M   'P 1'
_cell_length_a   10.05426769
_cell_length_b   10.05426769
_cell_length_c   4.78683408
_cell_angle_alpha   84.42073843
_cell_angle_beta   95.57926157
_cell_angle_gamma   145.10568323
_symmetry_Int_Tables_number   1
_chemical_formula_structural   Fe4O5F3
_chemical_formula_sum   'Fe8 O10 F6'
_cell_volume   275.37671408
_cell_formula_units_Z   2
loop_
 _symmetry_equiv_pos_site_id
 _symmetry_equiv_pos_as_xyz
  1  'x, y, z'
loop_
 _atom_site_type_symbol
 _atom_site_label
 _atom_site_symmetry_multiplicity
 _atom_site_fract_x
 _atom_site_fract_y
 _atom_site_fract_z
 _atom_site_occupancy
  Fe  Fe0  1  0.885109  0.114891  0.462546  1
  Fe  Fe1  1  0.622908  0.377092  0.509341  1
  Fe  Fe2  1  0.132967  0.867033  0.466751  1
  Fe  Fe3  1  0.372784  0.627216  0.504909  1
  Fe  Fe4  1  0.491456  0.997857  0.013175  1
  Fe  Fe5  1  0.240649  0.244743  0.007640  1
  Fe  Fe6  1  0.002143  0.508544  0.013175  1
  Fe  Fe7  1  0.755257  0.759351  0.007640  1
  O  O8  1  0.954845  0.045155  0.186561  1
  O  O9  1  0.202403  0.797597  0.187959  1
  O  O10  1  0.574103  0.920021  0.304184  1
  O  O11  1  0.815718  0.662551  0.305301  1
  O  O12  1  0.079979  0.425897  0.304184  1
  O  O13  1  0.337449  0.184282  0.305301  1
  O  O14  1  0.913639  0.567924  0.696696  1
  O  O15  1  0.432076  0.086361  0.696696  1
  O  O16  1  0.182170  0.333542  0.691005  1
  O  O17  1  0.666458  0.817830  0.691005  1
  F  F18  1  0.451229  0.548771  0.190145  1
  F  F19  1  0.701151  0.298849  0.201028  1
  F  F20  1  0.546473  0.453527  0.811200  1
  F  F21  1  0.296709  0.703291  0.805543  1
  F  F22  1  0.048521  0.951479  0.810363  1
  F  F23  1  0.794336  0.205664  0.827882  1
