# generated using pymatgen
data_LiMnP3HO10
_symmetry_space_group_name_H-M   'P 1'
_cell_length_a   7.30471214
_cell_length_b   7.30471214
_cell_length_c   9.44800818
_cell_angle_alpha   73.53204827
_cell_angle_beta   106.46795173
_cell_angle_gamma   112.55715485
_symmetry_Int_Tables_number   1
_chemical_formula_structural   LiMnP3HO10
_chemical_formula_sum   'Li2 Mn2 P6 H2 O20'
_cell_volume   437.69213535
_cell_formula_units_Z   2
loop_
 _symmetry_equiv_pos_site_id
 _symmetry_equiv_pos_as_xyz
  1  'x, y, z'
loop_
 _atom_site_type_symbol
 _atom_site_label
 _atom_site_symmetry_multiplicity
 _atom_site_fract_x
 _atom_site_fract_y
 _atom_site_fract_z
 _atom_site_occupancy
  Li  Li0  1  0.434392  0.434392  0.250000  1
  Li  Li1  1  0.565608  0.565608  0.750000  1
  Mn  Mn2  1  0.000000  0.500000  0.500000  1
  Mn  Mn3  1  0.500000  0.000000  0.000000  1
  P  P4  1  0.861221  0.276898  0.205717  1
  P  P5  1  0.723102  0.138779  0.705717  1
  P  P6  1  0.862742  0.862742  0.250000  1
  P  P7  1  0.137258  0.137258  0.750000  1
  P  P8  1  0.276898  0.861221  0.294283  1
  P  P9  1  0.138779  0.723102  0.794283  1
  H  H10  1  0.000000  0.500000  0.000000  1
  H  H11  1  0.500000  0.000000  0.500000  1
  O  O12  1  0.901184  0.069451  0.299871  1
  O  O13  1  0.930549  0.098816  0.799871  1
  O  O14  1  0.653364  0.227701  0.099229  1
  O  O15  1  0.847687  0.374622  0.322588  1
  O  O16  1  0.392806  0.038395  0.378204  1
  O  O17  1  0.772299  0.346636  0.599229  1
  O  O18  1  0.625378  0.152313  0.822588  1
  O  O19  1  0.832356  0.702394  0.389897  1
  O  O20  1  0.961605  0.607194  0.878204  1
  O  O21  1  0.702394  0.832356  0.110103  1
  O  O22  1  0.297606  0.167644  0.889897  1
  O  O23  1  0.038395  0.392806  0.121796  1
  O  O24  1  0.167644  0.297606  0.610103  1
  O  O25  1  0.374622  0.847687  0.177412  1
  O  O26  1  0.227701  0.653364  0.400771  1
  O  O27  1  0.607194  0.961605  0.621796  1
  O  O28  1  0.152313  0.625378  0.677412  1
  O  O29  1  0.346636  0.772299  0.900771  1
  O  O30  1  0.069451  0.901184  0.200129  1
  O  O31  1  0.098816  0.930549  0.700129  1
