# generated using pymatgen
data_Mn3O5F
_symmetry_space_group_name_H-M   'P 1'
_cell_length_a   5.44909550
_cell_length_b   5.46225021
_cell_length_c   7.10944646
_cell_angle_alpha   72.60025958
_cell_angle_beta   72.61389829
_cell_angle_gamma   72.17775974
_symmetry_Int_Tables_number   1
_chemical_formula_structural   Mn3O5F
_chemical_formula_sum   'Mn6 O10 F2'
_cell_volume   187.16368521
_cell_formula_units_Z   2
loop_
 _symmetry_equiv_pos_site_id
 _symmetry_equiv_pos_as_xyz
  1  'x, y, z'
loop_
 _atom_site_type_symbol
 _atom_site_label
 _atom_site_symmetry_multiplicity
 _atom_site_fract_x
 _atom_site_fract_y
 _atom_site_fract_z
 _atom_site_occupancy
  Mn  Mn0  1  0.652577  0.667326  0.842563  1
  Mn  Mn1  1  0.359535  0.315639  0.668074  1
  Mn  Mn2  1  0.651068  0.658463  0.333118  1
  Mn  Mn3  1  0.331682  0.331511  0.161937  1
  Mn  Mn4  1  0.007716  0.022634  0.502086  1
  Mn  Mn5  1  0.998150  0.005484  0.991480  1
  O  O6  1  0.356963  0.975354  0.331458  1
  O  O7  1  0.566955  0.562376  0.629262  1
  O  O8  1  0.233169  0.234588  0.957516  1
  O  O9  1  0.111867  0.108480  0.700009  1
  O  O10  1  0.764694  0.765654  0.039288  1
  O  O11  1  0.427930  0.433033  0.373890  1
  O  O12  1  0.969470  0.366144  0.328171  1
  O  O13  1  0.648632  0.023298  0.665176  1
  O  O14  1  0.301225  0.694115  0.003020  1
  O  O15  1  0.690419  0.307747  0.001407  1
  F  F16  1  0.035391  0.635142  0.666913  1
  F  F17  1  0.892556  0.893013  0.304634  1
