# generated using pymatgen
data_Li2Fe4OF8
_symmetry_space_group_name_H-M   'P 1'
_cell_length_a   5.38110799
_cell_length_b   5.38110799
_cell_length_c   14.35168101
_cell_angle_alpha   88.88036683
_cell_angle_beta   91.11963317
_cell_angle_gamma   121.32964602
_symmetry_Int_Tables_number   1
_chemical_formula_structural   Li2Fe4OF8
_chemical_formula_sum   'Li4 Fe8 O2 F16'
_cell_volume   354.88815336
_cell_formula_units_Z   2
loop_
 _symmetry_equiv_pos_site_id
 _symmetry_equiv_pos_as_xyz
  1  'x, y, z'
loop_
 _atom_site_type_symbol
 _atom_site_label
 _atom_site_symmetry_multiplicity
 _atom_site_fract_x
 _atom_site_fract_y
 _atom_site_fract_z
 _atom_site_occupancy
  Li  Li0  1  0.000035  0.002039  0.153653  1
  Li  Li1  1  0.997961  0.999965  0.653653  1
  Li  Li2  1  0.988651  0.979276  0.360319  1
  Li  Li3  1  0.020724  0.011349  0.860319  1
  Fe  Fe4  1  0.690611  0.347160  0.317545  1
  Fe  Fe5  1  0.652267  0.330207  0.014921  1
  Fe  Fe6  1  0.652840  0.309389  0.817545  1
  Fe  Fe7  1  0.669793  0.347733  0.514921  1
  Fe  Fe8  1  0.334653  0.673039  0.185672  1
  Fe  Fe9  1  0.326961  0.665347  0.685672  1
  Fe  Fe10  1  0.339881  0.692065  0.973802  1
  Fe  Fe11  1  0.307935  0.660119  0.473802  1
  O  O12  1  0.381333  0.046653  0.918169  1
  O  O13  1  0.953347  0.618667  0.418169  1
  F  F14  1  0.296759  0.296060  0.747664  1
  F  F15  1  0.342162  0.317331  0.415691  1
  F  F16  1  0.703940  0.703241  0.247664  1
  F  F17  1  0.682669  0.657838  0.915691  1
  F  F18  1  0.978563  0.663810  0.744342  1
  F  F19  1  0.670704  0.013834  0.414628  1
  F  F20  1  0.008180  0.655278  0.085812  1
  F  F21  1  0.336190  0.021437  0.244342  1
  F  F22  1  0.986166  0.329296  0.914628  1
  F  F23  1  0.344722  0.991820  0.585812  1
  F  F24  1  0.011408  0.302166  0.246485  1
  F  F25  1  0.024623  0.353315  0.588791  1
  F  F26  1  0.325969  0.380106  0.082443  1
  F  F27  1  0.646685  0.975377  0.088791  1
  F  F28  1  0.697834  0.988592  0.746485  1
  F  F29  1  0.619894  0.674031  0.582443  1
