# generated using pymatgen
data_VP4
_symmetry_space_group_name_H-M   'P 1'
_cell_length_a   6.09746933
_cell_length_b   6.09746933
_cell_length_c   5.84911804
_cell_angle_alpha   81.28100557
_cell_angle_beta   98.71899443
_cell_angle_gamma   51.15363744
_symmetry_Int_Tables_number   1
_chemical_formula_structural   VP4
_chemical_formula_sum   'V2 P8'
_cell_volume   158.58450628
_cell_formula_units_Z   2
loop_
 _symmetry_equiv_pos_site_id
 _symmetry_equiv_pos_as_xyz
  1  'x, y, z'
loop_
 _atom_site_type_symbol
 _atom_site_label
 _atom_site_symmetry_multiplicity
 _atom_site_fract_x
 _atom_site_fract_y
 _atom_site_fract_z
 _atom_site_occupancy
  V  V0  1  0.062232  0.062232  0.750000  1
  V  V1  1  0.937768  0.937768  0.250000  1
  P  P2  1  0.496335  0.948126  0.689786  1
  P  P3  1  0.948126  0.496335  0.810214  1
  P  P4  1  0.184598  0.635191  0.676661  1
  P  P5  1  0.635191  0.184598  0.823339  1
  P  P6  1  0.815402  0.364809  0.323339  1
  P  P7  1  0.364809  0.815402  0.176661  1
  P  P8  1  0.051874  0.503665  0.189786  1
  P  P9  1  0.503665  0.051874  0.310214  1
