# generated using pymatgen
data_LiFePH2O5
_symmetry_space_group_name_H-M   'P 1'
_cell_length_a   5.10976508
_cell_length_b   8.22803720
_cell_length_c   11.04421361
_cell_angle_alpha   90.00000000
_cell_angle_beta   90.00000000
_cell_angle_gamma   90.00000000
_symmetry_Int_Tables_number   1
_chemical_formula_structural   LiFePH2O5
_chemical_formula_sum   'Li4 Fe4 P4 H8 O20'
_cell_volume   464.33559649
_cell_formula_units_Z   4
loop_
 _symmetry_equiv_pos_site_id
 _symmetry_equiv_pos_as_xyz
  1  'x, y, z'
loop_
 _atom_site_type_symbol
 _atom_site_label
 _atom_site_symmetry_multiplicity
 _atom_site_fract_x
 _atom_site_fract_y
 _atom_site_fract_z
 _atom_site_occupancy
  Li  Li0  1  0.804291  0.877276  0.115822  1
  Li  Li1  1  0.304291  0.377276  0.384178  1
  Li  Li2  1  0.804291  0.622724  0.615822  1
  Li  Li3  1  0.304291  0.122724  0.884178  1
  Fe  Fe4  1  0.300806  0.687121  0.196549  1
  Fe  Fe5  1  0.800806  0.187121  0.303451  1
  Fe  Fe6  1  0.300806  0.812879  0.696549  1
  Fe  Fe7  1  0.800806  0.312879  0.803451  1
  P  P8  1  0.310764  0.087172  0.167388  1
  P  P9  1  0.810764  0.587172  0.332612  1
  P  P10  1  0.310764  0.412828  0.667388  1
  P  P11  1  0.810764  0.912828  0.832612  1
  H  H12  1  0.624262  0.430704  0.007312  1
  H  H13  1  0.856919  0.313596  0.038198  1
  H  H14  1  0.356919  0.813596  0.461802  1
  H  H15  1  0.124262  0.930704  0.492688  1
  H  H16  1  0.624262  0.069296  0.507312  1
  H  H17  1  0.856919  0.186404  0.538198  1
  H  H18  1  0.356919  0.686404  0.961802  1
  H  H19  1  0.124262  0.569296  0.992688  1
  O  O20  1  0.306430  0.595621  0.014590  1
  O  O21  1  0.373968  0.175431  0.049935  1
  O  O22  1  0.439465  0.914389  0.170298  1
  O  O23  1  0.007049  0.064030  0.183993  1
  O  O24  1  0.909776  0.683666  0.218539  1
  O  O25  1  0.409776  0.183666  0.281461  1
  O  O26  1  0.507049  0.564030  0.316007  1
  O  O27  1  0.939465  0.414389  0.329702  1
  O  O28  1  0.873968  0.675431  0.450065  1
  O  O29  1  0.806430  0.095621  0.485410  1
  O  O30  1  0.306430  0.904379  0.514590  1
  O  O31  1  0.373968  0.324569  0.549935  1
  O  O32  1  0.439465  0.585611  0.670298  1
  O  O33  1  0.007049  0.435970  0.683993  1
  O  O34  1  0.909776  0.816334  0.718539  1
  O  O35  1  0.409776  0.316334  0.781461  1
  O  O36  1  0.507049  0.935970  0.816007  1
  O  O37  1  0.939465  0.085611  0.829702  1
  O  O38  1  0.873968  0.824569  0.950065  1
  O  O39  1  0.806430  0.404379  0.985410  1
