# generated using pymatgen
data_LiFe(SO4)2
_symmetry_space_group_name_H-M   'P 1'
_cell_length_a   8.39708998
_cell_length_b   8.40534610
_cell_length_c   8.93003920
_cell_angle_alpha   62.28130021
_cell_angle_beta   62.42477150
_cell_angle_gamma   60.22302663
_symmetry_Int_Tables_number   1
_chemical_formula_structural   LiFe(SO4)2
_chemical_formula_sum   'Li3 Fe3 S6 O24'
_cell_volume   461.69917887
_cell_formula_units_Z   3
loop_
 _symmetry_equiv_pos_site_id
 _symmetry_equiv_pos_as_xyz
  1  'x, y, z'
loop_
 _atom_site_type_symbol
 _atom_site_label
 _atom_site_symmetry_multiplicity
 _atom_site_fract_x
 _atom_site_fract_y
 _atom_site_fract_z
 _atom_site_occupancy
  Li  Li0  1  0.356686  0.351410  0.934614  1
  Li  Li1  1  0.172806  0.766013  0.629423  1
  Li  Li2  1  0.764142  0.431064  0.628615  1
  Fe  Fe3  1  0.165729  0.157249  0.538830  1
  Fe  Fe4  1  0.643387  0.644785  0.070128  1
  Fe  Fe5  1  0.847384  0.859230  0.442854  1
  S  S6  1  0.041983  0.461515  0.750027  1
  S  S7  1  0.457635  0.752530  0.747716  1
  S  S8  1  0.752848  0.041775  0.744775  1
  S  S9  1  0.253147  0.958748  0.246644  1
  S  S10  1  0.541612  0.256046  0.244723  1
  S  S11  1  0.958940  0.542456  0.247798  1
  O  O12  1  0.107585  0.510207  0.086150  1
  O  O13  1  0.297863  0.108090  0.086610  1
  O  O14  1  0.004801  0.339515  0.696237  1
  O  O15  1  0.514530  0.299400  0.080084  1
  O  O16  1  0.023241  0.656385  0.607870  1
  O  O17  1  0.233420  0.375492  0.765331  1
  O  O18  1  0.369453  0.633576  0.756690  1
  O  O19  1  0.335218  0.959628  0.696730  1
  O  O20  1  0.640175  0.238055  0.755435  1
  O  O21  1  0.049860  0.976644  0.298337  1
  O  O22  1  0.275120  0.965719  0.404418  1
  O  O23  1  0.352265  0.282871  0.392260  1
  O  O24  1  0.653460  0.712997  0.608114  1
  O  O25  1  0.721025  0.021856  0.603996  1
  O  O26  1  0.964385  0.003807  0.697832  1
  O  O27  1  0.383079  0.761113  0.233228  1
  O  O28  1  0.671500  0.051067  0.299427  1
  O  O29  1  0.623652  0.384113  0.233909  1
  O  O30  1  0.760794  0.622417  0.234449  1
  O  O31  1  0.967987  0.356125  0.403429  1
  O  O32  1  0.485691  0.701271  0.917975  1
  O  O33  1  0.975110  0.676234  0.301525  1
  O  O34  1  0.700373  0.895991  0.915907  1
  O  O35  1  0.887618  0.490906  0.917110  1
