# generated using pymatgen
data_NaSc(BH4)4
_symmetry_space_group_name_H-M   'P 1'
_cell_length_a   7.19696224
_cell_length_b   7.19696224
_cell_length_c   8.73494291
_cell_angle_alpha   90.00000000
_cell_angle_beta   90.00000000
_cell_angle_gamma   110.28171092
_symmetry_Int_Tables_number   1
_chemical_formula_structural   NaSc(BH4)4
_chemical_formula_sum   'Na2 Sc2 B8 H32'
_cell_volume   424.38613506
_cell_formula_units_Z   2
loop_
 _symmetry_equiv_pos_site_id
 _symmetry_equiv_pos_as_xyz
  1  'x, y, z'
loop_
 _atom_site_type_symbol
 _atom_site_label
 _atom_site_symmetry_multiplicity
 _atom_site_fract_x
 _atom_site_fract_y
 _atom_site_fract_z
 _atom_site_occupancy
  Na  Na0  1  0.000000  0.000000  0.000000  1
  Na  Na1  1  0.000000  0.000000  0.500000  1
  Sc  Sc2  1  0.359319  0.640681  0.250000  1
  Sc  Sc3  1  0.640681  0.359319  0.750000  1
  B  B4  1  0.248342  0.751658  0.466485  1
  B  B5  1  0.751658  0.248342  0.966485  1
  B  B6  1  0.751658  0.248342  0.533515  1
  B  B7  1  0.248342  0.751658  0.033515  1
  B  B8  1  0.703848  0.756534  0.250000  1
  B  B9  1  0.296152  0.243466  0.750000  1
  B  B10  1  0.756534  0.703848  0.750000  1
  B  B11  1  0.243466  0.296152  0.250000  1
  H  H12  1  0.350370  0.649630  0.498229  1
  H  H13  1  0.649630  0.350370  0.998229  1
  H  H14  1  0.649630  0.350370  0.501771  1
  H  H15  1  0.350370  0.649630  0.001771  1
  H  H16  1  0.352599  0.889362  0.384994  1
  H  H17  1  0.647401  0.110638  0.884994  1
  H  H18  1  0.889362  0.352599  0.615006  1
  H  H19  1  0.110638  0.647401  0.115006  1
  H  H20  1  0.647401  0.110638  0.615006  1
  H  H21  1  0.352599  0.889362  0.115006  1
  H  H22  1  0.110638  0.647401  0.384994  1
  H  H23  1  0.889362  0.352599  0.884994  1
  H  H24  1  0.192598  0.807402  0.581840  1
  H  H25  1  0.807402  0.192598  0.081840  1
  H  H26  1  0.807402  0.192598  0.418160  1
  H  H27  1  0.192598  0.807402  0.918160  1
  H  H28  1  0.638330  0.652783  0.363578  1
  H  H29  1  0.361670  0.347217  0.863578  1
  H  H30  1  0.652783  0.638330  0.636422  1
  H  H31  1  0.347217  0.361670  0.136422  1
  H  H32  1  0.361670  0.347217  0.636422  1
  H  H33  1  0.638330  0.652783  0.136422  1
  H  H34  1  0.347217  0.361670  0.363578  1
  H  H35  1  0.652783  0.638330  0.863578  1
  H  H36  1  0.882975  0.818891  0.250000  1
  H  H37  1  0.117025  0.181109  0.750000  1
  H  H38  1  0.818891  0.882975  0.750000  1
  H  H39  1  0.181109  0.117025  0.250000  1
  H  H40  1  0.634523  0.891540  0.250000  1
  H  H41  1  0.365477  0.108460  0.750000  1
  H  H42  1  0.891540  0.634523  0.750000  1
  H  H43  1  0.108460  0.365477  0.250000  1
