# generated using pymatgen
data_Li(Co3P2)2
_symmetry_space_group_name_H-M   'P 1'
_cell_length_a   6.54033724
_cell_length_b   6.54033724
_cell_length_c   3.33567750
_cell_angle_alpha   90.00000000
_cell_angle_beta   90.00000000
_cell_angle_gamma   120.00000000
_symmetry_Int_Tables_number   1
_chemical_formula_structural   Li(Co3P2)2
_chemical_formula_sum   'Li1 Co6 P4'
_cell_volume   123.57054787
_cell_formula_units_Z   1
loop_
 _symmetry_equiv_pos_site_id
 _symmetry_equiv_pos_as_xyz
  1  'x, y, z'
loop_
 _atom_site_type_symbol
 _atom_site_label
 _atom_site_symmetry_multiplicity
 _atom_site_fract_x
 _atom_site_fract_y
 _atom_site_fract_z
 _atom_site_occupancy
  Li  Li0  1  0.000000  0.000000  0.000000  1
  Co  Co1  1  0.199923  0.800077  0.500000  1
  Co  Co2  1  0.199923  0.399846  0.500000  1
  Co  Co3  1  0.536008  0.072016  0.000000  1
  Co  Co4  1  0.927984  0.463992  0.000000  1
  Co  Co5  1  0.536008  0.463992  0.000000  1
  Co  Co6  1  0.600154  0.800077  0.500000  1
  P  P7  1  0.816421  0.183579  0.500000  1
  P  P8  1  0.367158  0.183579  0.500000  1
  P  P9  1  0.333333  0.666667  0.000000  1
  P  P10  1  0.816421  0.632842  0.500000  1
