# generated using pymatgen
data_Li4Fe3Sn3(SbO8)2
_symmetry_space_group_name_H-M   'P 1'
_cell_length_a   6.22001460
_cell_length_b   6.22001460
_cell_length_c   9.93904137
_cell_angle_alpha   89.19658136
_cell_angle_beta   90.80341864
_cell_angle_gamma   120.18348676
_symmetry_Int_Tables_number   1
_chemical_formula_structural   Li4Fe3Sn3(SbO8)2
_chemical_formula_sum   'Li4 Fe3 Sn3 Sb2 O16'
_cell_volume   332.34959628
_cell_formula_units_Z   1
loop_
 _symmetry_equiv_pos_site_id
 _symmetry_equiv_pos_as_xyz
  1  'x, y, z'
loop_
 _atom_site_type_symbol
 _atom_site_label
 _atom_site_symmetry_multiplicity
 _atom_site_fract_x
 _atom_site_fract_y
 _atom_site_fract_z
 _atom_site_occupancy
  Li  Li0  1  0.664802  0.335198  0.898774  1
  Li  Li1  1  0.987433  0.012567  0.980819  1
  Li  Li2  1  0.991225  0.008775  0.498048  1
  Li  Li3  1  0.328553  0.671447  0.410889  1
  Fe  Fe4  1  0.828918  0.171082  0.213684  1
  Fe  Fe5  1  0.174846  0.340665  0.711794  1
  Fe  Fe6  1  0.659335  0.825154  0.711794  1
  Sn  Sn7  1  0.338428  0.168014  0.213685  1
  Sn  Sn8  1  0.831986  0.661572  0.213685  1
  Sn  Sn9  1  0.172035  0.827965  0.712196  1
  Sb  Sb10  1  0.672972  0.327028  0.491774  1
  Sb  Sb11  1  0.343992  0.656008  0.978359  1
  O  O12  1  0.342135  0.164362  0.587795  1
  O  O13  1  0.517287  0.482713  0.345819  1
  O  O14  1  0.663186  0.336814  0.103874  1
  O  O15  1  0.000706  0.999294  0.309354  1
  O  O16  1  0.004928  0.995072  0.798507  1
  O  O17  1  0.835638  0.657865  0.587795  1
  O  O18  1  0.511456  0.041127  0.348987  1
  O  O19  1  0.958873  0.488544  0.348987  1
  O  O20  1  0.165963  0.834037  0.097344  1
  O  O21  1  0.832503  0.167497  0.585510  1
  O  O22  1  0.038255  0.523243  0.855978  1
  O  O23  1  0.476757  0.961745  0.855978  1
  O  O24  1  0.330175  0.669825  0.606356  1
  O  O25  1  0.173494  0.334377  0.093404  1
  O  O26  1  0.484822  0.515178  0.854080  1
  O  O27  1  0.665623  0.826506  0.093404  1
