# generated using pymatgen
data_Li5Co2(SiO5)2
_symmetry_space_group_name_H-M   'P 1'
_cell_length_a   4.92931913
_cell_length_b   5.51249306
_cell_length_c   16.59887173
_cell_angle_alpha   90.00000000
_cell_angle_beta   106.92488538
_cell_angle_gamma   90.00000000
_symmetry_Int_Tables_number   1
_chemical_formula_structural   Li5Co2(SiO5)2
_chemical_formula_sum   'Li10 Co4 Si4 O20'
_cell_volume   431.50272065
_cell_formula_units_Z   2
loop_
 _symmetry_equiv_pos_site_id
 _symmetry_equiv_pos_as_xyz
  1  'x, y, z'
loop_
 _atom_site_type_symbol
 _atom_site_label
 _atom_site_symmetry_multiplicity
 _atom_site_fract_x
 _atom_site_fract_y
 _atom_site_fract_z
 _atom_site_occupancy
  Li  Li0  1  0.592970  0.580471  0.592598  1
  Li  Li1  1  0.903491  0.082981  0.905200  1
  Li  Li2  1  0.206201  0.574476  0.197020  1
  Li  Li3  1  0.006229  0.589046  0.004132  1
  Li  Li4  1  0.488652  0.088505  0.492913  1
  Li  Li5  1  0.903491  0.917019  0.405200  1
  Li  Li6  1  0.592970  0.419529  0.092598  1
  Li  Li7  1  0.206201  0.425524  0.697020  1
  Li  Li8  1  0.488652  0.911495  0.992913  1
  Li  Li9  1  0.006229  0.410954  0.504132  1
  Co  Co10  1  0.699888  0.921598  0.200886  1
  Co  Co11  1  0.802108  0.426272  0.303099  1
  Co  Co12  1  0.699888  0.078402  0.700886  1
  Co  Co13  1  0.802108  0.573728  0.803099  1
  Si  Si14  1  0.104389  0.085034  0.095743  1
  Si  Si15  1  0.416964  0.586698  0.404237  1
  Si  Si16  1  0.104389  0.914966  0.595743  1
  Si  Si17  1  0.416964  0.413302  0.904237  1
  O  O18  1  0.859312  0.910329  0.794946  1
  O  O19  1  0.803832  0.397646  0.703963  1
  O  O20  1  0.522720  0.863709  0.411610  1
  O  O21  1  0.202096  0.367915  0.100741  1
  O  O22  1  0.109211  0.937982  0.012094  1
  O  O23  1  0.586706  0.425063  0.485280  1
  O  O24  1  0.312887  0.924856  0.177404  1
  O  O25  1  0.442699  0.473944  0.312012  1
  O  O26  1  0.776421  0.929957  0.609599  1
  O  O27  1  0.066379  0.431833  0.893675  1
  O  O28  1  0.803832  0.602354  0.203963  1
  O  O29  1  0.859312  0.089671  0.294946  1
  O  O30  1  0.202096  0.632085  0.600741  1
  O  O31  1  0.522720  0.136291  0.911610  1
  O  O32  1  0.109211  0.062018  0.512094  1
  O  O33  1  0.586706  0.574937  0.985280  1
  O  O34  1  0.312887  0.075144  0.677404  1
  O  O35  1  0.442699  0.526056  0.812012  1
  O  O36  1  0.776421  0.070043  0.109599  1
  O  O37  1  0.066379  0.568167  0.393675  1
