# generated using pymatgen
data_Co2(SnTe)3
_symmetry_space_group_name_H-M   'P 1'
_cell_length_a   9.19976174
_cell_length_b   9.19976174
_cell_length_c   9.19976174
_cell_angle_alpha   90.04459695
_cell_angle_beta   90.04459695
_cell_angle_gamma   90.04459695
_symmetry_Int_Tables_number   1
_chemical_formula_structural   Co2(SnTe)3
_chemical_formula_sum   'Co8 Sn12 Te12'
_cell_volume   778.62679443
_cell_formula_units_Z   4
loop_
 _symmetry_equiv_pos_site_id
 _symmetry_equiv_pos_as_xyz
  1  'x, y, z'
loop_
 _atom_site_type_symbol
 _atom_site_label
 _atom_site_symmetry_multiplicity
 _atom_site_fract_x
 _atom_site_fract_y
 _atom_site_fract_z
 _atom_site_occupancy
  Co  Co0  1  0.744156  0.248475  0.243870  1
  Co  Co1  1  0.243870  0.744156  0.248475  1
  Co  Co2  1  0.248475  0.243870  0.744156  1
  Co  Co3  1  0.255844  0.751525  0.756130  1
  Co  Co4  1  0.756130  0.255844  0.751525  1
  Co  Co5  1  0.751525  0.756130  0.255844  1
  Co  Co6  1  0.748431  0.748431  0.748431  1
  Co  Co7  1  0.251569  0.251569  0.251569  1
  Sn  Sn8  1  0.003684  0.835195  0.681495  1
  Sn  Sn9  1  0.681495  0.003684  0.835195  1
  Sn  Sn10  1  0.835195  0.681495  0.003684  1
  Sn  Sn11  1  0.996316  0.164805  0.318505  1
  Sn  Sn12  1  0.318505  0.996316  0.164805  1
  Sn  Sn13  1  0.164805  0.318505  0.996316  1
  Sn  Sn14  1  0.499181  0.665467  0.180738  1
  Sn  Sn15  1  0.180738  0.499181  0.665467  1
  Sn  Sn16  1  0.665467  0.180738  0.499181  1
  Sn  Sn17  1  0.500819  0.334533  0.819262  1
  Sn  Sn18  1  0.819262  0.500819  0.334533  1
  Sn  Sn19  1  0.334533  0.819262  0.500819  1
  Te  Te20  1  0.495450  0.343565  0.159538  1
  Te  Te21  1  0.159538  0.495450  0.343565  1
  Te  Te22  1  0.343565  0.159538  0.495450  1
  Te  Te23  1  0.504550  0.656435  0.840462  1
  Te  Te24  1  0.840462  0.504550  0.656435  1
  Te  Te25  1  0.656435  0.840462  0.504550  1
  Te  Te26  1  0.999685  0.156424  0.659703  1
  Te  Te27  1  0.659703  0.999685  0.156424  1
  Te  Te28  1  0.156424  0.659703  0.999685  1
  Te  Te29  1  0.000315  0.843576  0.340297  1
  Te  Te30  1  0.340297  0.000315  0.843576  1
  Te  Te31  1  0.843576  0.340297  0.000315  1
