# generated using pymatgen
data_AsPd2
_symmetry_space_group_name_H-M   'P 1'
_cell_length_a   8.75637294
_cell_length_b   8.75637294
_cell_length_c   6.70494520
_cell_angle_alpha   90.00000000
_cell_angle_beta   90.00000000
_cell_angle_gamma   158.06962910
_symmetry_Int_Tables_number   1
_chemical_formula_structural   AsPd2
_chemical_formula_sum   'As4 Pd8'
_cell_volume   192.00412544
_cell_formula_units_Z   4
loop_
 _symmetry_equiv_pos_site_id
 _symmetry_equiv_pos_as_xyz
  1  'x, y, z'
loop_
 _atom_site_type_symbol
 _atom_site_label
 _atom_site_symmetry_multiplicity
 _atom_site_fract_x
 _atom_site_fract_y
 _atom_site_fract_z
 _atom_site_occupancy
  As  As0  1  0.796120  0.203880  0.768173  1
  As  As1  1  0.203880  0.796120  0.268173  1
  As  As2  1  0.441607  0.558393  0.302737  1
  As  As3  1  0.558393  0.441607  0.802737  1
  Pd  Pd4  1  0.325404  0.674596  0.039174  1
  Pd  Pd5  1  0.674596  0.325404  0.539174  1
  Pd  Pd6  1  0.584999  0.415001  0.173091  1
  Pd  Pd7  1  0.415001  0.584999  0.673091  1
  Pd  Pd8  1  0.829060  0.170940  0.392286  1
  Pd  Pd9  1  0.170940  0.829060  0.892286  1
  Pd  Pd10  1  0.038329  0.961671  0.510239  1
  Pd  Pd11  1  0.961671  0.038329  0.010239  1
