# generated using pymatgen
data_KNaNdTaO5
_symmetry_space_group_name_H-M   'P 1'
_cell_length_a   5.79220992
_cell_length_b   5.79220992
_cell_length_c   8.33772316
_cell_angle_alpha   90.00000000
_cell_angle_beta   90.00000000
_cell_angle_gamma   90.00000000
_symmetry_Int_Tables_number   1
_chemical_formula_structural   KNaNdTaO5
_chemical_formula_sum   'K2 Na2 Nd2 Ta2 O10'
_cell_volume   279.72807533
_cell_formula_units_Z   2
loop_
 _symmetry_equiv_pos_site_id
 _symmetry_equiv_pos_as_xyz
  1  'x, y, z'
loop_
 _atom_site_type_symbol
 _atom_site_label
 _atom_site_symmetry_multiplicity
 _atom_site_fract_x
 _atom_site_fract_y
 _atom_site_fract_z
 _atom_site_occupancy
  K  K0  1  0.000000  0.000000  0.000000  1
  K  K1  1  0.500000  0.500000  0.000000  1
  Na  Na2  1  0.000000  0.500000  0.240720  1
  Na  Na3  1  0.500000  0.000000  0.759280  1
  Nd  Nd4  1  0.000000  0.000000  0.500000  1
  Nd  Nd5  1  0.500000  0.500000  0.500000  1
  Ta  Ta6  1  0.500000  0.000000  0.257344  1
  Ta  Ta7  1  0.000000  0.500000  0.742656  1
  O  O8  1  0.500000  0.000000  0.034437  1
  O  O9  1  0.270005  0.770005  0.328523  1
  O  O10  1  0.729995  0.770005  0.328523  1
  O  O11  1  0.270005  0.229995  0.328523  1
  O  O12  1  0.729995  0.229995  0.328523  1
  O  O13  1  0.770005  0.270005  0.671477  1
  O  O14  1  0.229995  0.270005  0.671477  1
  O  O15  1  0.770005  0.729995  0.671477  1
  O  O16  1  0.229995  0.729995  0.671477  1
  O  O17  1  0.000000  0.500000  0.965563  1
