# generated using pymatgen
data_Li2Fe3SnO8
_symmetry_space_group_name_H-M   'P 1'
_cell_length_a   8.53140441
_cell_length_b   8.52150441
_cell_length_c   8.53775839
_cell_angle_alpha   90.00000000
_cell_angle_beta   90.26422197
_cell_angle_gamma   90.00000000
_symmetry_Int_Tables_number   1
_chemical_formula_structural   Li2Fe3SnO8
_chemical_formula_sum   'Li8 Fe12 Sn4 O32'
_cell_volume   620.69185278
_cell_formula_units_Z   4
loop_
 _symmetry_equiv_pos_site_id
 _symmetry_equiv_pos_as_xyz
  1  'x, y, z'
loop_
 _atom_site_type_symbol
 _atom_site_label
 _atom_site_symmetry_multiplicity
 _atom_site_fract_x
 _atom_site_fract_y
 _atom_site_fract_z
 _atom_site_occupancy
  Li  Li0  1  0.120909  0.124843  0.625515  1
  Li  Li1  1  0.248789  0.252815  0.001254  1
  Li  Li2  1  0.248891  0.750107  0.499390  1
  Li  Li3  1  0.375738  0.876647  0.129019  1
  Li  Li4  1  0.624262  0.376647  0.870981  1
  Li  Li5  1  0.751109  0.250107  0.500610  1
  Li  Li6  1  0.751211  0.752815  0.998746  1
  Li  Li7  1  0.879091  0.624843  0.374485  1
  Fe  Fe8  1  0.113988  0.380215  0.372988  1
  Fe  Fe9  1  0.119199  0.621311  0.132546  1
  Fe  Fe10  1  0.124772  0.884681  0.869378  1
  Fe  Fe11  1  0.376615  0.113573  0.367942  1
  Fe  Fe12  1  0.380959  0.376212  0.637313  1
  Fe  Fe13  1  0.387084  0.618286  0.874102  1
  Fe  Fe14  1  0.612916  0.118286  0.125898  1
  Fe  Fe15  1  0.619041  0.876212  0.362687  1
  Fe  Fe16  1  0.623385  0.613573  0.632058  1
  Fe  Fe17  1  0.875228  0.384681  0.130622  1
  Fe  Fe18  1  0.880801  0.121311  0.867454  1
  Fe  Fe19  1  0.886012  0.880215  0.627012  1
  Sn  Sn20  1  0.002191  0.497887  0.753414  1
  Sn  Sn21  1  0.494750  0.497763  0.253503  1
  Sn  Sn22  1  0.505250  0.997763  0.746497  1
  Sn  Sn23  1  0.997809  0.997887  0.246586  1
  O  O24  1  0.108312  0.873442  0.639315  1
  O  O25  1  0.098024  0.114588  0.877141  1
  O  O26  1  0.116394  0.396308  0.134386  1
  O  O27  1  0.126804  0.611764  0.350188  1
  O  O28  1  0.125478  0.853183  0.114493  1
  O  O29  1  0.133722  0.636929  0.894180  1
  O  O30  1  0.136710  0.374362  0.609880  1
  O  O31  1  0.136293  0.136447  0.374344  1
  O  O32  1  0.361267  0.867178  0.875028  1
  O  O33  1  0.354508  0.625998  0.114288  1
  O  O34  1  0.358702  0.361078  0.388672  1
  O  O35  1  0.373666  0.137883  0.613960  1
  O  O36  1  0.373673  0.386667  0.860841  1
  O  O37  1  0.384222  0.613941  0.636700  1
  O  O38  1  0.389526  0.889495  0.378580  1
  O  O39  1  0.386710  0.126211  0.138471  1
  O  O40  1  0.613290  0.626211  0.861529  1
  O  O41  1  0.610474  0.389495  0.621420  1
  O  O42  1  0.615778  0.113941  0.363300  1
  O  O43  1  0.626327  0.886667  0.139159  1
  O  O44  1  0.626334  0.637883  0.386040  1
  O  O45  1  0.641298  0.861078  0.611328  1
  O  O46  1  0.645492  0.125998  0.885712  1
  O  O47  1  0.638733  0.367178  0.124972  1
  O  O48  1  0.863707  0.636447  0.625656  1
  O  O49  1  0.863290  0.874362  0.390120  1
  O  O50  1  0.866278  0.136929  0.105820  1
  O  O51  1  0.874522  0.353183  0.885507  1
  O  O52  1  0.873196  0.111764  0.649812  1
  O  O53  1  0.883606  0.896308  0.865614  1
  O  O54  1  0.901976  0.614588  0.122859  1
  O  O55  1  0.891688  0.373442  0.360685  1
