# generated using pymatgen
data_BaAsPt
_symmetry_space_group_name_H-M   'P 1'
_cell_length_a   6.82925544
_cell_length_b   6.82925544
_cell_length_c   6.82925544
_cell_angle_alpha   90.00000000
_cell_angle_beta   90.00000000
_cell_angle_gamma   90.00000000
_symmetry_Int_Tables_number   1
_chemical_formula_structural   BaAsPt
_chemical_formula_sum   'Ba4 As4 Pt4'
_cell_volume   318.50779964
_cell_formula_units_Z   4
loop_
 _symmetry_equiv_pos_site_id
 _symmetry_equiv_pos_as_xyz
  1  'x, y, z'
loop_
 _atom_site_type_symbol
 _atom_site_label
 _atom_site_symmetry_multiplicity
 _atom_site_fract_x
 _atom_site_fract_y
 _atom_site_fract_z
 _atom_site_occupancy
  Ba  Ba0  1  0.610121  0.389879  0.889879  1
  Ba  Ba1  1  0.389879  0.889879  0.610121  1
  Ba  Ba2  1  0.110121  0.110121  0.110121  1
  Ba  Ba3  1  0.889879  0.610121  0.389879  1
  As  As4  1  0.171194  0.328806  0.671194  1
  As  As5  1  0.671194  0.171194  0.328806  1
  As  As6  1  0.328806  0.671194  0.171194  1
  As  As7  1  0.828806  0.828806  0.828806  1
  Pt  Pt8  1  0.595574  0.904426  0.095574  1
  Pt  Pt9  1  0.095574  0.595574  0.904426  1
  Pt  Pt10  1  0.404426  0.404426  0.404426  1
  Pt  Pt11  1  0.904426  0.095574  0.595574  1
