# generated using pymatgen
data_La2Si5Rh3
_symmetry_space_group_name_H-M   'P 1'
_cell_length_a   8.33743246
_cell_length_b   8.33743246
_cell_length_c   8.33743246
_cell_angle_alpha   138.38698332
_cell_angle_beta   106.06367933
_cell_angle_gamma   88.60455037
_symmetry_Int_Tables_number   1
_chemical_formula_structural   La2Si5Rh3
_chemical_formula_sum   'La4 Si10 Rh6'
_cell_volume   354.40379124
_cell_formula_units_Z   2
loop_
 _symmetry_equiv_pos_site_id
 _symmetry_equiv_pos_as_xyz
  1  'x, y, z'
loop_
 _atom_site_type_symbol
 _atom_site_label
 _atom_site_symmetry_multiplicity
 _atom_site_fract_x
 _atom_site_fract_y
 _atom_site_fract_z
 _atom_site_occupancy
  La  La0  1  0.363552  0.130781  0.232771  1
  La  La1  1  0.636448  0.869219  0.767229  1
  La  La2  1  0.101990  0.369219  0.732771  1
  La  La3  1  0.898010  0.630781  0.267229  1
  Si  Si4  1  0.000000  0.250000  0.250000  1
  Si  Si5  1  0.000000  0.750000  0.750000  1
  Si  Si6  1  0.724811  0.974811  0.250000  1
  Si  Si7  1  0.275189  0.525189  0.250000  1
  Si  Si8  1  0.275189  0.025189  0.750000  1
  Si  Si9  1  0.724811  0.474811  0.750000  1
  Si  Si10  1  0.543197  0.392318  0.150879  1
  Si  Si11  1  0.241439  0.892318  0.349121  1
  Si  Si12  1  0.758561  0.107682  0.650879  1
  Si  Si13  1  0.456803  0.607682  0.849121  1
  Rh  Rh14  1  0.970778  0.861463  0.109316  1
  Rh  Rh15  1  0.500000  0.750000  0.250000  1
  Rh  Rh16  1  0.752147  0.361463  0.390684  1
  Rh  Rh17  1  0.247853  0.638537  0.609316  1
  Rh  Rh18  1  0.029222  0.138537  0.890684  1
  Rh  Rh19  1  0.500000  0.250000  0.750000  1
