# generated using pymatgen
data_Ba3Nb5O15
_symmetry_space_group_name_H-M   'P 1'
_cell_length_a   12.82900987
_cell_length_b   12.82900987
_cell_length_c   4.04279970
_cell_angle_alpha   90.00000000
_cell_angle_beta   90.00000000
_cell_angle_gamma   90.00000000
_symmetry_Int_Tables_number   1
_chemical_formula_structural   Ba3Nb5O15
_chemical_formula_sum   'Ba6 Nb10 O30'
_cell_volume   665.37810116
_cell_formula_units_Z   2
loop_
 _symmetry_equiv_pos_site_id
 _symmetry_equiv_pos_as_xyz
  1  'x, y, z'
loop_
 _atom_site_type_symbol
 _atom_site_label
 _atom_site_symmetry_multiplicity
 _atom_site_fract_x
 _atom_site_fract_y
 _atom_site_fract_z
 _atom_site_occupancy
  Ba  Ba0  1  0.332416  0.832416  0.000000  1
  Ba  Ba1  1  0.832416  0.667584  0.000000  1
  Ba  Ba2  1  0.167584  0.332416  0.000000  1
  Ba  Ba3  1  0.667584  0.167584  0.000000  1
  Ba  Ba4  1  0.500000  0.500000  0.000000  1
  Ba  Ba5  1  0.000000  0.000000  0.000000  1
  Nb  Nb6  1  0.422180  0.287446  0.500000  1
  Nb  Nb7  1  0.577820  0.712554  0.500000  1
  Nb  Nb8  1  0.712554  0.422180  0.500000  1
  Nb  Nb9  1  0.287446  0.577820  0.500000  1
  Nb  Nb10  1  0.787446  0.922180  0.500000  1
  Nb  Nb11  1  0.922180  0.212554  0.500000  1
  Nb  Nb12  1  0.077820  0.787446  0.500000  1
  Nb  Nb13  1  0.212554  0.077820  0.500000  1
  Nb  Nb14  1  0.000000  0.500000  0.500000  1
  Nb  Nb15  1  0.500000  0.000000  0.500000  1
  O  O16  1  0.360333  0.431591  0.500000  1
  O  O17  1  0.639667  0.568409  0.500000  1
  O  O18  1  0.568409  0.360333  0.500000  1
  O  O19  1  0.431591  0.639667  0.500000  1
  O  O20  1  0.931591  0.860333  0.500000  1
  O  O21  1  0.860333  0.068409  0.500000  1
  O  O22  1  0.139667  0.931591  0.500000  1
  O  O23  1  0.068409  0.139667  0.500000  1
  O  O24  1  0.156749  0.492991  0.500000  1
  O  O25  1  0.843251  0.507009  0.500000  1
  O  O26  1  0.507009  0.156749  0.500000  1
  O  O27  1  0.492991  0.843251  0.500000  1
  O  O28  1  0.992991  0.656749  0.500000  1
  O  O29  1  0.656749  0.007009  0.500000  1
  O  O30  1  0.343251  0.992991  0.500000  1
  O  O31  1  0.007009  0.343251  0.500000  1
  O  O32  1  0.500000  0.000000  0.000000  1
  O  O33  1  0.000000  0.500000  0.000000  1
  O  O34  1  0.780057  0.280057  0.500000  1
  O  O35  1  0.280057  0.219943  0.500000  1
  O  O36  1  0.719943  0.780057  0.500000  1
  O  O37  1  0.219943  0.719943  0.500000  1
  O  O38  1  0.208260  0.078145  0.000000  1
  O  O39  1  0.078145  0.791740  0.000000  1
  O  O40  1  0.921855  0.208260  0.000000  1
  O  O41  1  0.791740  0.921855  0.000000  1
  O  O42  1  0.291740  0.578145  0.000000  1
  O  O43  1  0.708260  0.421855  0.000000  1
  O  O44  1  0.578145  0.708260  0.000000  1
  O  O45  1  0.421855  0.291740  0.000000  1
