# generated using pymatgen
data_Li3CuNi3O8
_symmetry_space_group_name_H-M   'P 1'
_cell_length_a   5.72036286
_cell_length_b   5.76699081
_cell_length_c   5.83804995
_cell_angle_alpha   91.96484431
_cell_angle_beta   118.70171758
_cell_angle_gamma   118.40318878
_symmetry_Int_Tables_number   1
_chemical_formula_structural   Li3CuNi3O8
_chemical_formula_sum   'Li3 Cu1 Ni3 O8'
_cell_volume   139.71359616
_cell_formula_units_Z   1
loop_
 _symmetry_equiv_pos_site_id
 _symmetry_equiv_pos_as_xyz
  1  'x, y, z'
loop_
 _atom_site_type_symbol
 _atom_site_label
 _atom_site_symmetry_multiplicity
 _atom_site_fract_x
 _atom_site_fract_y
 _atom_site_fract_z
 _atom_site_occupancy
  Li  Li0  1  0.500000  0.500000  0.500000  1
  Li  Li1  1  0.500000  0.000000  0.500000  1
  Li  Li2  1  0.000000  0.000000  0.500000  1
  Cu  Cu3  1  0.000000  0.000000  0.000000  1
  Ni  Ni4  1  0.500000  0.000000  0.000000  1
  Ni  Ni5  1  0.500000  0.500000  0.000000  1
  Ni  Ni6  1  0.000000  0.500000  0.000000  1
  O  O7  1  0.539903  0.288393  0.779553  1
  O  O8  1  0.992170  0.234867  0.783244  1
  O  O9  1  0.040758  0.790639  0.782660  1
  O  O10  1  0.460097  0.711607  0.220447  1
  O  O11  1  0.508601  0.748884  0.787561  1
  O  O12  1  0.007830  0.765133  0.216756  1
  O  O13  1  0.959242  0.209361  0.217340  1
  O  O14  1  0.491399  0.251116  0.212439  1
