# generated using pymatgen
data_FeOF
_symmetry_space_group_name_H-M   'P 1'
_cell_length_a   4.75922549
_cell_length_b   3.09064058
_cell_length_c   14.30328871
_cell_angle_alpha   90.00000000
_cell_angle_beta   92.14168332
_cell_angle_gamma   90.00000000
_symmetry_Int_Tables_number   1
_chemical_formula_structural   FeOF
_chemical_formula_sum   'Fe6 O6 F6'
_cell_volume   210.24090439
_cell_formula_units_Z   6
loop_
 _symmetry_equiv_pos_site_id
 _symmetry_equiv_pos_as_xyz
  1  'x, y, z'
loop_
 _atom_site_type_symbol
 _atom_site_label
 _atom_site_symmetry_multiplicity
 _atom_site_fract_x
 _atom_site_fract_y
 _atom_site_fract_z
 _atom_site_occupancy
  Fe  Fe0  1  0.936901  0.000000  0.999649  1
  Fe  Fe1  1  0.016936  0.000000  0.668173  1
  Fe  Fe2  1  0.967491  0.000000  0.334687  1
  Fe  Fe3  1  0.481084  0.500000  0.834850  1
  Fe  Fe4  1  0.566043  0.500000  0.501787  1
  Fe  Fe5  1  0.535092  0.500000  0.166009  1
  O  O6  1  0.818868  0.500000  0.399424  1
  O  O7  1  0.788793  0.500000  0.063537  1
  O  O8  1  0.676970  0.000000  0.893918  1
  O  O9  1  0.692230  0.000000  0.230928  1
  O  O10  1  0.715830  0.000000  0.569841  1
  O  O11  1  0.296631  0.000000  0.764253  1
  F  F12  1  0.813774  0.500000  0.729791  1
  F  F13  1  0.319484  0.000000  0.436407  1
  F  F14  1  0.291069  0.000000  0.101249  1
  F  F15  1  0.177223  0.500000  0.937374  1
  F  F16  1  0.208978  0.500000  0.598339  1
  F  F17  1  0.196603  0.500000  0.269785  1
