# generated using pymatgen
data_Li3Mn4(BO3)4
_symmetry_space_group_name_H-M   'P 1'
_cell_length_a   5.26094105
_cell_length_b   6.17463559
_cell_length_c   9.08919863
_cell_angle_alpha   108.04350354
_cell_angle_beta   89.02368057
_cell_angle_gamma   114.94703382
_symmetry_Int_Tables_number   1
_chemical_formula_structural   Li3Mn4(BO3)4
_chemical_formula_sum   'Li3 Mn4 B4 O12'
_cell_volume   252.32391063
_cell_formula_units_Z   1
loop_
 _symmetry_equiv_pos_site_id
 _symmetry_equiv_pos_as_xyz
  1  'x, y, z'
loop_
 _atom_site_type_symbol
 _atom_site_label
 _atom_site_symmetry_multiplicity
 _atom_site_fract_x
 _atom_site_fract_y
 _atom_site_fract_z
 _atom_site_occupancy
  Li  Li0  1  0.169638  0.552117  0.105798  1
  Li  Li1  1  0.679066  0.063307  0.620539  1
  Li  Li2  1  0.314877  0.930176  0.384384  1
  Mn  Mn3  1  0.796272  0.044609  0.190502  1
  Mn  Mn4  1  0.702333  0.457123  0.298717  1
  Mn  Mn5  1  0.304917  0.533668  0.715376  1
  Mn  Mn6  1  0.184462  0.949731  0.798214  1
  B  B7  1  0.291685  0.199285  0.037734  1
  B  B8  1  0.199289  0.274941  0.464112  1
  B  B9  1  0.817305  0.748365  0.534303  1
  B  B10  1  0.696312  0.781049  0.964419  1
  O  O11  1  0.070696  0.265284  0.028843  1
  O  O12  1  0.455241  0.134483  0.179613  1
  O  O13  1  0.587496  0.721510  0.101495  1
  O  O14  1  0.048582  0.357304  0.321839  1
  O  O15  1  0.438814  0.230830  0.472572  1
  O  O16  1  0.095266  0.224478  0.603447  1
  O  O17  1  0.902607  0.776496  0.396351  1
  O  O18  1  0.567118  0.766946  0.535741  1
  O  O19  1  0.006895  0.709949  0.671764  1
  O  O20  1  0.370857  0.220123  0.896514  1
  O  O21  1  0.537828  0.853209  0.822000  1
  O  O22  1  0.948072  0.756640  0.972616  1
