# generated using pymatgen
data_Li5V4(PO4)6
_symmetry_space_group_name_H-M   'P 1'
_cell_length_a   8.69187732
_cell_length_b   8.72200083
_cell_length_c   14.91104545
_cell_angle_alpha   90.00000000
_cell_angle_beta   125.21504246
_cell_angle_gamma   90.00000000
_symmetry_Int_Tables_number   1
_chemical_formula_structural   Li5V4(PO4)6
_chemical_formula_sum   'Li10 V8 P12 O48'
_cell_volume   923.54151922
_cell_formula_units_Z   2
loop_
 _symmetry_equiv_pos_site_id
 _symmetry_equiv_pos_as_xyz
  1  'x, y, z'
loop_
 _atom_site_type_symbol
 _atom_site_label
 _atom_site_symmetry_multiplicity
 _atom_site_fract_x
 _atom_site_fract_y
 _atom_site_fract_z
 _atom_site_occupancy
  Li  Li0  1  0.374642  0.176159  0.300159  1
  Li  Li1  1  0.029747  0.472134  0.820418  1
  Li  Li2  1  0.973300  0.972710  0.678207  1
  Li  Li3  1  0.679552  0.051892  0.260695  1
  Li  Li4  1  0.611329  0.660930  0.195525  1
  Li  Li5  1  0.374642  0.823841  0.800159  1
  Li  Li6  1  0.029747  0.527866  0.320418  1
  Li  Li7  1  0.973300  0.027290  0.178207  1
  Li  Li8  1  0.679552  0.948108  0.760695  1
  Li  Li9  1  0.611329  0.339070  0.695525  1
  V  V10  1  0.360534  0.221637  0.110044  1
  V  V11  1  0.630203  0.712907  0.389995  1
  V  V12  1  0.866555  0.288684  0.612761  1
  V  V13  1  0.136707  0.788467  0.889196  1
  V  V14  1  0.866555  0.711316  0.112761  1
  V  V15  1  0.136707  0.211533  0.389196  1
  V  V16  1  0.360534  0.778363  0.610044  1
  V  V17  1  0.630203  0.287093  0.889995  1
  P  P18  1  0.545008  0.999313  0.507166  1
  P  P19  1  0.257416  0.865062  0.151070  1
  P  P20  1  0.954957  0.148025  0.851929  1
  P  P21  1  0.749618  0.366912  0.353955  1
  P  P22  1  0.039442  0.645279  0.645309  1
  P  P23  1  0.460359  0.500985  0.995394  1
  P  P24  1  0.545008  0.000687  0.007166  1
  P  P25  1  0.954957  0.851975  0.351929  1
  P  P26  1  0.257416  0.134938  0.651070  1
  P  P27  1  0.039442  0.354721  0.145309  1
  P  P28  1  0.749618  0.633088  0.853955  1
  P  P29  1  0.460359  0.499015  0.495394  1
  O  O30  1  0.614736  0.379496  0.565725  1
  O  O31  1  0.210569  0.357313  0.140350  1
  O  O32  1  0.489976  0.573916  0.411598  1
  O  O33  1  0.902597  0.654971  0.832453  1
  O  O34  1  0.538559  0.880394  0.427981  1
  O  O35  1  0.184083  0.832194  0.031371  1
  O  O36  1  0.320312  0.036300  0.180802  1
  O  O37  1  0.905036  0.268603  0.761441  1
  O  O38  1  0.966234  0.984805  0.813098  1
  O  O39  1  0.740083  0.076686  0.569204  1
  O  O40  1  0.136006  0.197339  0.957110  1
  O  O41  1  0.429283  0.757553  0.226891  1
  O  O42  1  0.585393  0.251583  0.280900  1
  O  O43  1  0.857471  0.698035  0.535562  1
  O  O44  1  0.264756  0.578030  0.927431  1
  O  O45  1  0.008386  0.490179  0.681117  1
  O  O46  1  0.686512  0.538331  0.324459  1
  O  O47  1  0.823826  0.334555  0.472773  1
  O  O48  1  0.085373  0.769179  0.734495  1
  O  O49  1  0.469800  0.385152  0.075238  1
  O  O50  1  0.524830  0.069824  0.095409  1
  O  O51  1  0.779675  0.858527  0.356165  1
  O  O52  1  0.101082  0.156979  0.669506  1
  O  O53  1  0.384657  0.887002  0.931041  1
  O  O54  1  0.614736  0.620504  0.065725  1
  O  O55  1  0.902597  0.345029  0.332453  1
  O  O56  1  0.210569  0.642687  0.640350  1
  O  O57  1  0.489976  0.426084  0.911598  1
  O  O58  1  0.538559  0.119606  0.927981  1
  O  O59  1  0.905036  0.731397  0.261441  1
  O  O60  1  0.184083  0.167806  0.531371  1
  O  O61  1  0.320312  0.963700  0.680802  1
  O  O62  1  0.966234  0.015195  0.313098  1
  O  O63  1  0.740083  0.923314  0.069204  1
  O  O64  1  0.136006  0.802661  0.457110  1
  O  O65  1  0.429283  0.242447  0.726891  1
  O  O66  1  0.585393  0.748417  0.780900  1
  O  O67  1  0.857471  0.301965  0.035562  1
  O  O68  1  0.264756  0.421970  0.427431  1
  O  O69  1  0.008386  0.509821  0.181117  1
  O  O70  1  0.085373  0.230821  0.234495  1
  O  O71  1  0.686512  0.461669  0.824459  1
  O  O72  1  0.823826  0.665445  0.972773  1
  O  O73  1  0.469800  0.614848  0.575238  1
  O  O74  1  0.101082  0.843021  0.169506  1
  O  O75  1  0.524830  0.930176  0.595409  1
  O  O76  1  0.779675  0.141473  0.856165  1
  O  O77  1  0.384657  0.112998  0.431041  1
