# generated using pymatgen
data_Na3MnO3
_symmetry_space_group_name_H-M   'P 1'
_cell_length_a   9.67615543
_cell_length_b   9.67615543
_cell_length_c   4.37908043
_cell_angle_alpha   90.00000000
_cell_angle_beta   90.00000000
_cell_angle_gamma   90.00000000
_symmetry_Int_Tables_number   1
_chemical_formula_structural   Na3MnO3
_chemical_formula_sum   'Na12 Mn4 O12'
_cell_volume   410.00447203
_cell_formula_units_Z   4
loop_
 _symmetry_equiv_pos_site_id
 _symmetry_equiv_pos_as_xyz
  1  'x, y, z'
loop_
 _atom_site_type_symbol
 _atom_site_label
 _atom_site_symmetry_multiplicity
 _atom_site_fract_x
 _atom_site_fract_y
 _atom_site_fract_z
 _atom_site_occupancy
  Na  Na0  1  0.633597  0.119546  0.000000  1
  Na  Na1  1  0.380454  0.133597  0.500000  1
  Na  Na2  1  0.841605  0.158395  0.500000  1
  Na  Na3  1  0.341605  0.341605  0.000000  1
  Na  Na4  1  0.880454  0.366403  0.000000  1
  Na  Na5  1  0.133597  0.380454  0.500000  1
  Na  Na6  1  0.866403  0.619546  0.500000  1
  Na  Na7  1  0.119546  0.633597  0.000000  1
  Na  Na8  1  0.658395  0.658395  0.000000  1
  Na  Na9  1  0.158395  0.841605  0.500000  1
  Na  Na10  1  0.619546  0.866403  0.500000  1
  Na  Na11  1  0.366403  0.880454  0.000000  1
  Mn  Mn12  1  0.110047  0.110047  0.000000  1
  Mn  Mn13  1  0.610047  0.389953  0.500000  1
  Mn  Mn14  1  0.389953  0.610047  0.500000  1
  Mn  Mn15  1  0.889953  0.889953  0.000000  1
  O  O16  1  0.905178  0.094822  0.000000  1
  O  O17  1  0.304946  0.104822  0.000000  1
  O  O18  1  0.604822  0.195054  0.500000  1
  O  O19  1  0.104822  0.304946  0.000000  1
  O  O20  1  0.804946  0.395178  0.500000  1
  O  O21  1  0.405178  0.405178  0.500000  1
  O  O22  1  0.594822  0.594822  0.500000  1
  O  O23  1  0.195054  0.604822  0.500000  1
  O  O24  1  0.895178  0.695054  0.000000  1
  O  O25  1  0.395178  0.804946  0.500000  1
  O  O26  1  0.695054  0.895178  0.000000  1
  O  O27  1  0.094822  0.905178  0.000000  1
