# generated using pymatgen
data_Co6OF11
_symmetry_space_group_name_H-M   'P 1'
_cell_length_a   5.69865305
_cell_length_b   5.69865305
_cell_length_c   7.46449151
_cell_angle_alpha   72.83207971
_cell_angle_beta   107.16792029
_cell_angle_gamma   108.54153624
_symmetry_Int_Tables_number   1
_chemical_formula_structural   Co6OF11
_chemical_formula_sum   'Co6 O1 F11'
_cell_volume   214.09306191
_cell_formula_units_Z   1
loop_
 _symmetry_equiv_pos_site_id
 _symmetry_equiv_pos_as_xyz
  1  'x, y, z'
loop_
 _atom_site_type_symbol
 _atom_site_label
 _atom_site_symmetry_multiplicity
 _atom_site_fract_x
 _atom_site_fract_y
 _atom_site_fract_z
 _atom_site_occupancy
  Co  Co0  1  0.351191  0.668595  0.842189  1
  Co  Co1  1  0.335905  0.671760  0.333705  1
  Co  Co2  1  0.671760  0.335905  0.666295  1
  Co  Co3  1  0.668595  0.351191  0.157811  1
  Co  Co4  1  0.002279  0.002279  0.500000  1
  Co  Co5  1  0.978135  0.978135  0.000000  1
  O  O6  1  0.687003  0.687003  0.000000  1
  F  F7  1  0.637567  0.981920  0.328964  1
  F  F8  1  0.981920  0.637567  0.671036  1
  F  F9  1  0.434837  0.564407  0.630594  1
  F  F10  1  0.102739  0.901501  0.299614  1
  F  F11  1  0.768207  0.229196  0.964745  1
  F  F12  1  0.564407  0.434837  0.369406  1
  F  F13  1  0.229196  0.768207  0.035255  1
  F  F14  1  0.901501  0.102739  0.700386  1
  F  F15  1  0.026540  0.368206  0.330475  1
  F  F16  1  0.368206  0.026540  0.669525  1
  F  F17  1  0.290015  0.290015  0.000000  1
