# generated using pymatgen
data_LiVGeO5
_symmetry_space_group_name_H-M   'P 1'
_cell_length_a   4.76175774
_cell_length_b   6.46030391
_cell_length_c   6.57267181
_cell_angle_alpha   90.00000000
_cell_angle_beta   92.69183201
_cell_angle_gamma   90.00000000
_symmetry_Int_Tables_number   1
_chemical_formula_structural   LiVGeO5
_chemical_formula_sum   'Li2 V2 Ge2 O10'
_cell_volume   201.96807149
_cell_formula_units_Z   2
loop_
 _symmetry_equiv_pos_site_id
 _symmetry_equiv_pos_as_xyz
  1  'x, y, z'
loop_
 _atom_site_type_symbol
 _atom_site_label
 _atom_site_symmetry_multiplicity
 _atom_site_fract_x
 _atom_site_fract_y
 _atom_site_fract_z
 _atom_site_occupancy
  Li  Li0  1  0.000000  0.000000  0.000000  1
  Li  Li1  1  0.000000  0.500000  0.000000  1
  V  V2  1  0.386474  0.750000  0.745998  1
  V  V3  1  0.613526  0.250000  0.254002  1
  Ge  Ge4  1  0.497237  0.250000  0.756292  1
  Ge  Ge5  1  0.502763  0.750000  0.243708  1
  O  O6  1  0.679205  0.250000  0.527673  1
  O  O7  1  0.727992  0.750000  0.785638  1
  O  O8  1  0.276486  0.470279  0.771295  1
  O  O9  1  0.276486  0.029721  0.771295  1
  O  O10  1  0.752588  0.250000  0.959801  1
  O  O11  1  0.247412  0.750000  0.040199  1
  O  O12  1  0.723514  0.970279  0.228705  1
  O  O13  1  0.723514  0.529721  0.228705  1
  O  O14  1  0.272008  0.250000  0.214362  1
  O  O15  1  0.320795  0.750000  0.472327  1
