# generated using pymatgen
data_HoCoSi2
_symmetry_space_group_name_H-M   'P 1'
_cell_length_a   8.31412207
_cell_length_b   8.31412207
_cell_length_c   3.95588588
_cell_angle_alpha   90.00000000
_cell_angle_beta   90.00000000
_cell_angle_gamma   152.19114930
_symmetry_Int_Tables_number   1
_chemical_formula_structural   HoCoSi2
_chemical_formula_sum   'Ho2 Co2 Si4'
_cell_volume   127.57038541
_cell_formula_units_Z   2
loop_
 _symmetry_equiv_pos_site_id
 _symmetry_equiv_pos_as_xyz
  1  'x, y, z'
loop_
 _atom_site_type_symbol
 _atom_site_label
 _atom_site_symmetry_multiplicity
 _atom_site_fract_x
 _atom_site_fract_y
 _atom_site_fract_z
 _atom_site_occupancy
  Ho  Ho0  1  0.107487  0.892513  0.250000  1
  Ho  Ho1  1  0.892513  0.107487  0.750000  1
  Co  Co2  1  0.321043  0.678957  0.250000  1
  Co  Co3  1  0.678957  0.321043  0.750000  1
  Si  Si4  1  0.249878  0.750122  0.750000  1
  Si  Si5  1  0.750122  0.249878  0.250000  1
  Si  Si6  1  0.542363  0.457637  0.750000  1
  Si  Si7  1  0.457637  0.542363  0.250000  1
