# generated using pymatgen
data_LiNO3
_symmetry_space_group_name_H-M   'P 1'
_cell_length_a   5.82632433
_cell_length_b   5.82632433
_cell_length_c   5.82632433
_cell_angle_alpha   48.27425544
_cell_angle_beta   48.27425544
_cell_angle_gamma   48.27425544
_symmetry_Int_Tables_number   1
_chemical_formula_structural   LiNO3
_chemical_formula_sum   'Li2 N2 O6'
_cell_volume   100.98993188
_cell_formula_units_Z   2
loop_
 _symmetry_equiv_pos_site_id
 _symmetry_equiv_pos_as_xyz
  1  'x, y, z'
loop_
 _atom_site_type_symbol
 _atom_site_label
 _atom_site_symmetry_multiplicity
 _atom_site_fract_x
 _atom_site_fract_y
 _atom_site_fract_z
 _atom_site_occupancy
  Li  Li0  1  0.000000  0.000000  0.000000  1
  Li  Li1  1  0.500000  0.500000  0.500000  1
  N  N2  1  0.750000  0.750000  0.750000  1
  N  N3  1  0.250000  0.250000  0.250000  1
  O  O4  1  0.015825  0.750000  0.484175  1
  O  O5  1  0.484175  0.015825  0.750000  1
  O  O6  1  0.750000  0.484175  0.015825  1
  O  O7  1  0.984175  0.250000  0.515825  1
  O  O8  1  0.515825  0.984175  0.250000  1
  O  O9  1  0.250000  0.515825  0.984175  1
