# generated using pymatgen
data_ThNF
_symmetry_space_group_name_H-M   'P 1'
_cell_length_a   7.21574340
_cell_length_b   7.21574340
_cell_length_c   7.21574340
_cell_angle_alpha   32.31845419
_cell_angle_beta   32.31845419
_cell_angle_gamma   32.31845419
_symmetry_Int_Tables_number   1
_chemical_formula_structural   ThNF
_chemical_formula_sum   'Th2 N2 F2'
_cell_volume   95.45841232
_cell_formula_units_Z   2
loop_
 _symmetry_equiv_pos_site_id
 _symmetry_equiv_pos_as_xyz
  1  'x, y, z'
loop_
 _atom_site_type_symbol
 _atom_site_label
 _atom_site_symmetry_multiplicity
 _atom_site_fract_x
 _atom_site_fract_y
 _atom_site_fract_z
 _atom_site_occupancy
  Th  Th0  1  0.261937  0.261937  0.261937  1
  Th  Th1  1  0.738063  0.738063  0.738063  1
  N  N2  1  0.377054  0.377054  0.377054  1
  N  N3  1  0.622946  0.622946  0.622946  1
  F  F4  1  0.868862  0.868862  0.868862  1
  F  F5  1  0.131138  0.131138  0.131138  1
