# generated using pymatgen
data_Fe2OF3
_symmetry_space_group_name_H-M   'P 1'
_cell_length_a   5.77472855
_cell_length_b   5.77472855
_cell_length_c   10.72591687
_cell_angle_alpha   68.88025770
_cell_angle_beta   111.11974230
_cell_angle_gamma   114.80408795
_symmetry_Int_Tables_number   1
_chemical_formula_structural   Fe2OF3
_chemical_formula_sum   'Fe8 O4 F12'
_cell_volume   293.49105114
_cell_formula_units_Z   4
loop_
 _symmetry_equiv_pos_site_id
 _symmetry_equiv_pos_as_xyz
  1  'x, y, z'
loop_
 _atom_site_type_symbol
 _atom_site_label
 _atom_site_symmetry_multiplicity
 _atom_site_fract_x
 _atom_site_fract_y
 _atom_site_fract_z
 _atom_site_occupancy
  Fe  Fe0  1  0.621165  0.867704  0.750073  1
  Fe  Fe1  1  0.378835  0.132296  0.249927  1
  Fe  Fe2  1  0.000000  1.000000  0.500000  1
  Fe  Fe3  1  0.500000  0.500000  0.500000  1
  Fe  Fe4  1  0.762077  0.237923  0.980089  1
  Fe  Fe5  1  0.867704  0.621165  0.249927  1
  Fe  Fe6  1  0.132296  0.378835  0.750073  1
  Fe  Fe7  1  0.237923  0.762077  0.019911  1
  O  O8  1  0.420737  0.579263  0.659803  1
  O  O9  1  0.579263  0.420737  0.340197  1
  O  O10  1  0.836101  0.163899  0.834135  1
  O  O11  1  0.163899  0.836101  0.165865  1
  F  F12  1  0.402039  0.089018  0.604364  1
  F  F13  1  0.322682  0.677318  0.854665  1
  F  F14  1  0.677318  0.322682  0.145335  1
  F  F15  1  0.926695  0.073305  0.648452  1
  F  F16  1  0.348676  0.156242  0.896495  1
  F  F17  1  0.597961  0.910982  0.395636  1
  F  F18  1  0.843758  0.651324  0.896495  1
  F  F19  1  0.156242  0.348676  0.103505  1
  F  F20  1  0.910982  0.597961  0.604364  1
  F  F21  1  0.651324  0.843758  0.103505  1
  F  F22  1  0.073305  0.926695  0.351548  1
  F  F23  1  0.089018  0.402039  0.395636  1
