# generated using pymatgen
data_Li11V6O5F19
_symmetry_space_group_name_H-M   'P 1'
_cell_length_a   5.17266609
_cell_length_b   5.42064546
_cell_length_c   16.32009426
_cell_angle_alpha   81.15673784
_cell_angle_beta   89.91755345
_cell_angle_gamma   89.69534108
_symmetry_Int_Tables_number   1
_chemical_formula_structural   Li11V6O5F19
_chemical_formula_sum   'Li11 V6 O5 F19'
_cell_volume   452.15601774
_cell_formula_units_Z   1
loop_
 _symmetry_equiv_pos_site_id
 _symmetry_equiv_pos_as_xyz
  1  'x, y, z'
loop_
 _atom_site_type_symbol
 _atom_site_label
 _atom_site_symmetry_multiplicity
 _atom_site_fract_x
 _atom_site_fract_y
 _atom_site_fract_z
 _atom_site_occupancy
  Li  Li0  1  0.486980  0.673621  0.560611  1
  Li  Li1  1  0.013375  0.830140  0.224807  1
  Li  Li2  1  0.019053  0.483969  0.891518  1
  Li  Li3  1  0.509700  0.005356  0.105703  1
  Li  Li4  1  0.526215  0.491584  0.794569  1
  Li  Li5  1  0.982425  0.822304  0.439579  1
  Li  Li6  1  0.015486  0.158798  0.556322  1
  Li  Li7  1  0.485965  0.996919  0.891200  1
  Li  Li8  1  0.484018  0.344585  0.223669  1
  Li  Li9  1  0.986132  0.496410  0.107249  1
  Li  Li10  1  0.509257  0.339811  0.437044  1
  V  V11  1  0.497430  0.466124  0.001332  1
  V  V12  1  0.494346  0.800411  0.333496  1
  V  V13  1  0.988707  0.686441  0.665935  1
  V  V14  1  0.999259  0.028484  0.001842  1
  V  V15  1  0.515563  0.151104  0.665115  1
  V  V16  1  0.994837  0.358773  0.334678  1
  O  O17  1  0.684355  0.204838  0.964320  1
  O  O18  1  0.687575  0.875978  0.631478  1
  O  O19  1  0.188433  0.285946  0.041350  1
  O  O20  1  0.678887  0.531668  0.299774  1
  O  O21  1  0.184168  0.617366  0.372435  1
  F  F22  1  0.826625  0.380590  0.626011  1
  F  F23  1  0.327561  0.482559  0.687633  1
  F  F24  1  0.860928  0.867128  0.117360  1
  F  F25  1  0.877838  0.584002  0.781061  1
  F  F26  1  0.634694  0.699372  0.452513  1
  F  F27  1  0.364791  0.959720  0.218790  1
  F  F28  1  0.373361  0.625268  0.883908  1
  F  F29  1  0.135087  0.795068  0.549906  1
  F  F30  1  0.827340  0.700190  0.969584  1
  F  F31  1  0.826641  0.029765  0.303242  1
  F  F32  1  0.320235  0.121302  0.367685  1
  F  F33  1  0.180145  0.975158  0.694469  1
  F  F34  1  0.860960  0.198223  0.450094  1
  F  F35  1  0.148203  0.138633  0.889339  1
  F  F36  1  0.642586  0.364839  0.119010  1
  F  F37  1  0.135369  0.466233  0.217440  1
  F  F38  1  0.592753  0.136933  0.781628  1
  F  F39  1  0.370246  0.283225  0.550986  1
  F  F40  1  0.325319  0.788914  0.034913  1
