# generated using pymatgen
data_HfNbO4
_symmetry_space_group_name_H-M   'P 1'
_cell_length_a   6.30440930
_cell_length_b   6.30440930
_cell_length_c   5.11509630
_cell_angle_alpha   67.93581346
_cell_angle_beta   112.06418654
_cell_angle_gamma   67.11924575
_symmetry_Int_Tables_number   1
_chemical_formula_structural   HfNbO4
_chemical_formula_sum   'Hf2 Nb2 O8'
_cell_volume   137.41715863
_cell_formula_units_Z   2
loop_
 _symmetry_equiv_pos_site_id
 _symmetry_equiv_pos_as_xyz
  1  'x, y, z'
loop_
 _atom_site_type_symbol
 _atom_site_label
 _atom_site_symmetry_multiplicity
 _atom_site_fract_x
 _atom_site_fract_y
 _atom_site_fract_z
 _atom_site_occupancy
  Hf  Hf0  1  0.618334  0.618334  0.250000  1
  Hf  Hf1  1  0.381666  0.381666  0.750000  1
  Nb  Nb2  1  0.145285  0.145285  0.250000  1
  Nb  Nb3  1  0.854715  0.854715  0.750000  1
  O  O4  1  0.451996  0.988001  0.746447  1
  O  O5  1  0.011999  0.548004  0.246447  1
  O  O6  1  0.686217  0.242453  0.645482  1
  O  O7  1  0.757547  0.313783  0.145482  1
  O  O8  1  0.242453  0.686217  0.854518  1
  O  O9  1  0.313783  0.757547  0.354518  1
  O  O10  1  0.988001  0.451996  0.753553  1
  O  O11  1  0.548004  0.011999  0.253553  1
