# generated using pymatgen
data_Mn3(O2F)2
_symmetry_space_group_name_H-M   'P 1'
_cell_length_a   4.64661119
_cell_length_b   4.64661119
_cell_length_c   9.19376720
_cell_angle_alpha   90.00000000
_cell_angle_beta   90.00000000
_cell_angle_gamma   90.00000000
_symmetry_Int_Tables_number   1
_chemical_formula_structural   Mn3(O2F)2
_chemical_formula_sum   'Mn6 O8 F4'
_cell_volume   198.50258676
_cell_formula_units_Z   2
loop_
 _symmetry_equiv_pos_site_id
 _symmetry_equiv_pos_as_xyz
  1  'x, y, z'
loop_
 _atom_site_type_symbol
 _atom_site_label
 _atom_site_symmetry_multiplicity
 _atom_site_fract_x
 _atom_site_fract_y
 _atom_site_fract_z
 _atom_site_occupancy
  Mn  Mn0  1  0.500000  0.500000  0.681644  1
  Mn  Mn1  1  0.500000  0.500000  0.000000  1
  Mn  Mn2  1  0.500000  0.500000  0.318356  1
  Mn  Mn3  1  0.000000  0.000000  0.500000  1
  Mn  Mn4  1  0.000000  0.000000  0.818356  1
  Mn  Mn5  1  0.000000  0.000000  0.181644  1
  O  O6  1  0.695511  0.304489  0.835450  1
  O  O7  1  0.695511  0.304489  0.164550  1
  O  O8  1  0.804489  0.804489  0.664550  1
  O  O9  1  0.804489  0.804489  0.335450  1
  O  O10  1  0.195511  0.195511  0.664550  1
  O  O11  1  0.195511  0.195511  0.335450  1
  O  O12  1  0.304489  0.695511  0.835450  1
  O  O13  1  0.304489  0.695511  0.164550  1
  F  F14  1  0.683045  0.316955  0.500000  1
  F  F15  1  0.816955  0.816955  0.000000  1
  F  F16  1  0.183045  0.183045  0.000000  1
  F  F17  1  0.316955  0.683045  0.500000  1
