# generated using pymatgen
data_Li4Co7(OF7)2
_symmetry_space_group_name_H-M   'P 1'
_cell_length_a   6.05168056
_cell_length_b   6.09062720
_cell_length_c   10.58025411
_cell_angle_alpha   91.41735930
_cell_angle_beta   105.89577854
_cell_angle_gamma   118.55341890
_symmetry_Int_Tables_number   1
_chemical_formula_structural   Li4Co7(OF7)2
_chemical_formula_sum   'Li4 Co7 O2 F14'
_cell_volume   323.80274361
_cell_formula_units_Z   1
loop_
 _symmetry_equiv_pos_site_id
 _symmetry_equiv_pos_as_xyz
  1  'x, y, z'
loop_
 _atom_site_type_symbol
 _atom_site_label
 _atom_site_symmetry_multiplicity
 _atom_site_fract_x
 _atom_site_fract_y
 _atom_site_fract_z
 _atom_site_occupancy
  Li  Li0  1  0.640646  0.348988  0.444757  1
  Li  Li1  1  0.376353  0.168790  0.056463  1
  Li  Li2  1  0.624987  0.825223  0.947340  1
  Li  Li3  1  0.374026  0.665905  0.558382  1
  Co  Co4  1  0.003908  0.488105  0.994084  1
  Co  Co5  1  0.524604  0.749691  0.250342  1
  Co  Co6  1  0.989652  0.235162  0.244109  1
  Co  Co7  1  0.996948  0.749408  0.749633  1
  Co  Co8  1  0.979762  0.990076  0.499722  1
  Co  Co9  1  0.981232  0.756526  0.251273  1
  Co  Co10  1  0.495776  0.244601  0.748108  1
  O  O11  1  0.769600  0.663654  0.375201  1
  O  O12  1  0.765928  0.892585  0.142062  1
  F  F13  1  0.243429  0.375351  0.121527  1
  F  F14  1  0.744473  0.393246  0.639072  1
  F  F15  1  0.238481  0.844054  0.130682  1
  F  F16  1  0.246091  0.874379  0.629486  1
  F  F17  1  0.759031  0.856645  0.625774  1
  F  F18  1  0.770430  0.383880  0.121547  1
  F  F19  1  0.233845  0.644475  0.881166  1
  F  F20  1  0.243444  0.138326  0.375797  1
  F  F21  1  0.762376  0.140772  0.376275  1
  F  F22  1  0.738830  0.147056  0.878838  1
  F  F23  1  0.233828  0.614517  0.352244  1
  F  F24  1  0.252075  0.339420  0.617728  1
  F  F25  1  0.255253  0.105413  0.864087  1
  F  F26  1  0.754995  0.613754  0.874302  1
