# generated using pymatgen
data_LiV2P4(HO8)2
_symmetry_space_group_name_H-M   'P 1'
_cell_length_a   7.73354713
_cell_length_b   7.88881063
_cell_length_c   9.74663629
_cell_angle_alpha   90.04667354
_cell_angle_beta   112.96657325
_cell_angle_gamma   90.06094621
_symmetry_Int_Tables_number   1
_chemical_formula_structural   LiV2P4(HO8)2
_chemical_formula_sum   'Li2 V4 P8 H4 O32'
_cell_volume   547.49220363
_cell_formula_units_Z   2
loop_
 _symmetry_equiv_pos_site_id
 _symmetry_equiv_pos_as_xyz
  1  'x, y, z'
loop_
 _atom_site_type_symbol
 _atom_site_label
 _atom_site_symmetry_multiplicity
 _atom_site_fract_x
 _atom_site_fract_y
 _atom_site_fract_z
 _atom_site_occupancy
  Li  Li0  1  0.849752  0.868947  0.726654  1
  Li  Li1  1  0.352787  0.632084  0.221867  1
  V  V2  1  0.005100  0.493531  0.754027  1
  V  V3  1  0.485431  0.003998  0.745963  1
  V  V4  1  0.991618  0.496368  0.248873  1
  V  V5  1  0.500008  0.007474  0.251924  1
  P  P6  1  0.232149  0.845850  0.931220  1
  P  P7  1  0.731693  0.649103  0.928946  1
  P  P8  1  0.271289  0.357052  0.568299  1
  P  P9  1  0.225486  0.854847  0.426661  1
  P  P10  1  0.762065  0.155624  0.568834  1
  P  P11  1  0.737491  0.657525  0.432506  1
  P  P12  1  0.267275  0.348116  0.069672  1
  P  P13  1  0.765288  0.147920  0.068148  1
  H  H14  1  0.506357  0.509632  0.991605  1
  H  H15  1  0.510209  0.500971  0.494633  1
  H  H16  1  0.987592  0.005452  0.510521  1
  H  H17  1  0.993654  0.011437  0.011668  1
  O  O18  1  0.054137  0.944249  0.904177  1
  O  O19  1  0.136310  0.327570  0.903145  1
  O  O20  1  0.185941  0.670911  0.857408  1
  O  O21  1  0.353547  0.944367  0.857221  1
  O  O22  1  0.551007  0.552754  0.905215  1
  O  O23  1  0.638286  0.163361  0.900291  1
  O  O24  1  0.683879  0.826587  0.853996  1
  O  O25  1  0.850159  0.556877  0.855763  1
  O  O26  1  0.156684  0.442614  0.647313  1
  O  O27  1  0.324439  0.173472  0.639420  1
  O  O28  1  0.358942  0.841092  0.598570  1
  O  O29  1  0.450420  0.448243  0.588454  1
  O  O30  1  0.653721  0.051649  0.647877  1
  O  O31  1  0.816270  0.330668  0.639677  1
  O  O32  1  0.049839  0.948485  0.409688  1
  O  O33  1  0.136862  0.337489  0.400536  1
  O  O34  1  0.860213  0.675146  0.600203  1
  O  O35  1  0.939363  0.047575  0.597084  1
  O  O36  1  0.184240  0.674093  0.353875  1
  O  O37  1  0.347977  0.944286  0.354493  1
  O  O38  1  0.555791  0.557755  0.404486  1
  O  O39  1  0.635911  0.174410  0.402502  1
  O  O40  1  0.683577  0.829391  0.356200  1
  O  O41  1  0.855261  0.556962  0.358984  1
  O  O42  1  0.151440  0.448321  0.147819  1
  O  O43  1  0.314690  0.171287  0.138954  1
  O  O44  1  0.359586  0.827984  0.098597  1
  O  O45  1  0.439191  0.456310  0.095786  1
  O  O46  1  0.652731  0.058930  0.146665  1
  O  O47  1  0.821405  0.329096  0.139777  1
  O  O48  1  0.858432  0.662478  0.099718  1
  O  O49  1  0.948363  0.053413  0.095921  1
