# generated using pymatgen
data_TaNiTe5
_symmetry_space_group_name_H-M   'P 1'
_cell_length_a   7.20932016
_cell_length_b   7.20932016
_cell_length_c   15.25497970
_cell_angle_alpha   90.00000000
_cell_angle_beta   90.00000000
_cell_angle_gamma   150.18024111
_symmetry_Int_Tables_number   1
_chemical_formula_structural   TaNiTe5
_chemical_formula_sum   'Ta2 Ni2 Te10'
_cell_volume   394.27142494
_cell_formula_units_Z   2
loop_
 _symmetry_equiv_pos_site_id
 _symmetry_equiv_pos_as_xyz
  1  'x, y, z'
loop_
 _atom_site_type_symbol
 _atom_site_label
 _atom_site_symmetry_multiplicity
 _atom_site_fract_x
 _atom_site_fract_y
 _atom_site_fract_z
 _atom_site_occupancy
  Ta  Ta0  1  0.490257  0.509743  0.750000  1
  Ta  Ta1  1  0.509743  0.490257  0.250000  1
  Ni  Ni2  1  0.000000  0.000000  0.000000  1
  Ni  Ni3  1  0.000000  0.000000  0.500000  1
  Te  Te4  1  0.599437  0.400563  0.075922  1
  Te  Te5  1  0.902508  0.097492  0.145725  1
  Te  Te6  1  0.400563  0.599437  0.924078  1
  Te  Te7  1  0.400563  0.599437  0.575922  1
  Te  Te8  1  0.599437  0.400563  0.424078  1
  Te  Te9  1  0.834947  0.165053  0.750000  1
  Te  Te10  1  0.097492  0.902508  0.645725  1
  Te  Te11  1  0.165053  0.834947  0.250000  1
  Te  Te12  1  0.902508  0.097492  0.354275  1
  Te  Te13  1  0.097492  0.902508  0.854275  1
