# generated using pymatgen
data_Pd(AuF4)2
_symmetry_space_group_name_H-M   'P 1'
_cell_length_a   5.51018881
_cell_length_b   11.15189091
_cell_length_c   7.74860441
_cell_angle_alpha   90.00000000
_cell_angle_beta   132.98384161
_cell_angle_gamma   90.00000000
_symmetry_Int_Tables_number   1
_chemical_formula_structural   Pd(AuF4)2
_chemical_formula_sum   'Pd2 Au4 F16'
_cell_volume   348.32137590
_cell_formula_units_Z   2
loop_
 _symmetry_equiv_pos_site_id
 _symmetry_equiv_pos_as_xyz
  1  'x, y, z'
loop_
 _atom_site_type_symbol
 _atom_site_label
 _atom_site_symmetry_multiplicity
 _atom_site_fract_x
 _atom_site_fract_y
 _atom_site_fract_z
 _atom_site_occupancy
  Pd  Pd0  1  0.500000  0.500000  0.500000  1
  Pd  Pd1  1  0.500000  0.000000  0.000000  1
  Au  Au2  1  0.229535  0.686240  0.970010  1
  Au  Au3  1  0.770465  0.186240  0.529990  1
  Au  Au4  1  0.229535  0.813760  0.470010  1
  Au  Au5  1  0.770465  0.313760  0.029990  1
  F  F6  1  0.972954  0.469718  0.195496  1
  F  F7  1  0.027046  0.969718  0.304504  1
  F  F8  1  0.027046  0.530282  0.804504  1
  F  F9  1  0.972954  0.030282  0.695496  1
  F  F10  1  0.538392  0.900339  0.779409  1
  F  F11  1  0.461608  0.400339  0.720591  1
  F  F12  1  0.428511  0.843784  0.132628  1
  F  F13  1  0.571489  0.343784  0.367372  1
  F  F14  1  0.571489  0.156216  0.867372  1
  F  F15  1  0.428511  0.656216  0.632628  1
  F  F16  1  0.054778  0.271968  0.829704  1
  F  F17  1  0.945222  0.771968  0.670296  1
  F  F18  1  0.945222  0.728032  0.170296  1
  F  F19  1  0.054778  0.228032  0.329704  1
  F  F20  1  0.538392  0.599661  0.279409  1
  F  F21  1  0.461608  0.099661  0.220591  1
