# generated using pymatgen
data_LiMn2(BO3)2
_symmetry_space_group_name_H-M   'P 1'
_cell_length_a   5.81729061
_cell_length_b   9.23166369
_cell_length_c   12.43610810
_cell_angle_alpha   104.21312854
_cell_angle_beta   87.93422562
_cell_angle_gamma   104.29974332
_symmetry_Int_Tables_number   1
_chemical_formula_structural   LiMn2(BO3)2
_chemical_formula_sum   'Li5 Mn10 B10 O30'
_cell_volume   627.14178487
_cell_formula_units_Z   5
loop_
 _symmetry_equiv_pos_site_id
 _symmetry_equiv_pos_as_xyz
  1  'x, y, z'
loop_
 _atom_site_type_symbol
 _atom_site_label
 _atom_site_symmetry_multiplicity
 _atom_site_fract_x
 _atom_site_fract_y
 _atom_site_fract_z
 _atom_site_occupancy
  Li  Li0  1  0.039961  0.663927  0.711432  1
  Li  Li1  1  0.767606  0.738192  0.092836  1
  Li  Li2  1  0.557136  0.143541  0.897005  1
  Li  Li3  1  0.818441  0.063136  0.508860  1
  Li  Li4  1  0.973856  0.338986  0.295834  1
  Mn  Mn5  1  0.167930  0.554443  0.907861  1
  Mn  Mn6  1  0.250804  0.657784  0.501983  1
  Mn  Mn7  1  0.038286  0.016582  0.296520  1
  Mn  Mn8  1  0.552755  0.754512  0.305077  1
  Mn  Mn9  1  0.355694  0.155503  0.110963  1
  Mn  Mn10  1  0.633829  0.819831  0.885856  1
  Mn  Mn11  1  0.438036  0.254546  0.687447  1
  Mn  Mn12  1  0.980658  0.993410  0.719867  1
  Mn  Mn13  1  0.752999  0.396660  0.503186  1
  Mn  Mn14  1  0.834463  0.418632  0.090201  1
  B  B15  1  0.029320  0.674508  0.285313  1
  B  B16  1  0.166516  0.900393  0.903854  1
  B  B17  1  0.443416  0.906870  0.700344  1
  B  B18  1  0.221351  0.302033  0.485462  1
  B  B19  1  0.367657  0.498071  0.104832  1
  B  B20  1  0.641437  0.481293  0.891619  1
  B  B21  1  0.771852  0.734996  0.522266  1
  B  B22  1  0.570521  0.101953  0.313987  1
  B  B23  1  0.835123  0.077593  0.087503  1
  B  B24  1  0.958592  0.325351  0.702495  1
  O  O25  1  0.011322  0.477542  0.749333  1
  O  O26  1  0.204559  0.734169  0.368867  1
  O  O27  1  0.001988  0.142003  0.176892  1
  O  O28  1  0.340571  0.013974  0.675890  1
  O  O29  1  0.126501  0.410128  0.454291  1
  O  O30  1  0.292339  0.794332  0.916383  1
  O  O31  1  0.097375  0.229000  0.720790  1
  O  O32  1  0.159165  0.435980  0.038549  1
  O  O33  1  0.360108  0.749842  0.656316  1
  O  O34  1  0.129006  0.146107  0.445749  1
  O  O35  1  0.451925  0.652140  0.144671  1
  O  O36  1  0.241391  0.053083  0.947284  1
  O  O37  1  0.623801  0.959956  0.783975  1
  O  O38  1  0.406299  0.352668  0.564951  1
  O  O39  1  0.531144  0.583946  0.863834  1
  O  O40  1  0.493445  0.392844  0.119719  1
  O  O41  1  0.575068  0.660438  0.449451  1
  O  O42  1  0.366162  0.040701  0.244932  1
  O  O43  1  0.774512  0.921269  0.042871  1
  O  O44  1  0.574365  0.325522  0.843354  1
  O  O45  1  0.830783  0.888900  0.562600  1
  O  O46  1  0.658702  0.255831  0.350346  1
  O  O47  1  0.815416  0.541959  0.977348  1
  O  O48  1  0.926586  0.777577  0.249297  1
  O  O49  1  0.726071  0.176463  0.050895  1
  O  O50  1  0.907777  0.638455  0.548298  1
  O  O51  1  0.691460  0.997198  0.339132  1
  O  O52  1  0.965300  0.835853  0.829526  1
  O  O53  1  0.761913  0.253842  0.627132  1
  O  O54  1  0.954528  0.518184  0.244029  1
