# generated using pymatgen
data_Sc3RuC4
_symmetry_space_group_name_H-M   'P 1'
_cell_length_a   6.81640955
_cell_length_b   6.81640955
_cell_length_c   6.81640955
_cell_angle_alpha   151.69801384
_cell_angle_beta   141.41611555
_cell_angle_gamma   48.53542627
_symmetry_Int_Tables_number   1
_chemical_formula_structural   Sc3RuC4
_chemical_formula_sum   'Sc3 Ru1 C4'
_cell_volume   93.28330191
_cell_formula_units_Z   1
loop_
 _symmetry_equiv_pos_site_id
 _symmetry_equiv_pos_as_xyz
  1  'x, y, z'
loop_
 _atom_site_type_symbol
 _atom_site_label
 _atom_site_symmetry_multiplicity
 _atom_site_fract_x
 _atom_site_fract_y
 _atom_site_fract_z
 _atom_site_occupancy
  Sc  Sc0  1  0.810600  0.810600  0.000000  1
  Sc  Sc1  1  0.189400  0.189400  0.000000  1
  Sc  Sc2  1  0.500000  0.000000  0.500000  1
  Ru  Ru3  1  0.000000  0.500000  0.500000  1
  C  C4  1  0.787809  0.629134  0.158675  1
  C  C5  1  0.212191  0.370866  0.841325  1
  C  C6  1  0.529541  0.370866  0.158675  1
  C  C7  1  0.470459  0.629134  0.841325  1
