# generated using pymatgen
data_LiMnPH2O5
_symmetry_space_group_name_H-M   'P 1'
_cell_length_a   4.73626784
_cell_length_b   5.77169777
_cell_length_c   7.94900549
_cell_angle_alpha   90.00000000
_cell_angle_beta   90.00000000
_cell_angle_gamma   90.00000000
_symmetry_Int_Tables_number   1
_chemical_formula_structural   LiMnPH2O5
_chemical_formula_sum   'Li2 Mn2 P2 H4 O10'
_cell_volume   217.29645069
_cell_formula_units_Z   2
loop_
 _symmetry_equiv_pos_site_id
 _symmetry_equiv_pos_as_xyz
  1  'x, y, z'
loop_
 _atom_site_type_symbol
 _atom_site_label
 _atom_site_symmetry_multiplicity
 _atom_site_fract_x
 _atom_site_fract_y
 _atom_site_fract_z
 _atom_site_occupancy
  Li  Li0  1  0.080172  0.000000  0.457547  1
  Li  Li1  1  0.580172  0.500000  0.542453  1
  Mn  Mn2  1  0.026199  0.000000  0.984132  1
  Mn  Mn3  1  0.526199  0.500000  0.015868  1
  P  P4  1  0.590394  0.000000  0.240797  1
  P  P5  1  0.090394  0.500000  0.759203  1
  H  H6  1  0.577405  0.135254  0.781063  1
  H  H7  1  0.077405  0.364746  0.218937  1
  H  H8  1  0.077405  0.635254  0.218937  1
  H  H9  1  0.577405  0.864746  0.781063  1
  O  O10  1  0.262764  0.000000  0.228589  1
  O  O11  1  0.680623  0.000000  0.426248  1
  O  O12  1  0.703718  0.000000  0.784182  1
  O  O13  1  0.718460  0.214673  0.144204  1
  O  O14  1  0.218460  0.285327  0.855796  1
  O  O15  1  0.203718  0.500000  0.215818  1
  O  O16  1  0.180623  0.500000  0.573752  1
  O  O17  1  0.762764  0.500000  0.771411  1
  O  O18  1  0.218460  0.714673  0.855796  1
  O  O19  1  0.718460  0.785327  0.144204  1
