# generated using pymatgen
data_LiCo3OF5
_symmetry_space_group_name_H-M   'P 1'
_cell_length_a   8.40263558
_cell_length_b   8.44944355
_cell_length_c   8.44949158
_cell_angle_alpha   109.04752344
_cell_angle_beta   109.14774729
_cell_angle_gamma   109.24661240
_symmetry_Int_Tables_number   1
_chemical_formula_structural   LiCo3OF5
_chemical_formula_sum   'Li4 Co12 O4 F20'
_cell_volume   467.25353246
_cell_formula_units_Z   4
loop_
 _symmetry_equiv_pos_site_id
 _symmetry_equiv_pos_as_xyz
  1  'x, y, z'
loop_
 _atom_site_type_symbol
 _atom_site_label
 _atom_site_symmetry_multiplicity
 _atom_site_fract_x
 _atom_site_fract_y
 _atom_site_fract_z
 _atom_site_occupancy
  Li  Li0  1  0.480584  0.483940  0.477114  1
  Li  Li1  1  0.519789  0.002652  0.004429  1
  Li  Li2  1  0.033186  0.028997  0.529813  1
  Li  Li3  1  0.990370  0.499254  0.977029  1
  Co  Co4  1  0.287517  0.049881  0.241196  1
  Co  Co5  1  0.253833  0.226885  0.975873  1
  Co  Co6  1  0.762221  0.296937  0.541614  1
  Co  Co7  1  0.030281  0.235274  0.254705  1
  Co  Co8  1  0.513251  0.253750  0.782379  1
  Co  Co9  1  0.785011  0.533963  0.245840  1
  Co  Co10  1  0.208186  0.459356  0.748791  1
  Co  Co11  1  0.462965  0.753669  0.217513  1
  Co  Co12  1  0.968374  0.733511  0.720689  1
  Co  Co13  1  0.762058  0.802368  0.042886  1
  Co  Co14  1  0.249328  0.718781  0.467913  1
  Co  Co15  1  0.722604  0.969543  0.770548  1
  O  O16  1  0.278620  0.257127  0.760209  1
  O  O17  1  0.778768  0.034117  0.034589  1
  O  O18  1  0.000424  0.527987  0.750980  1
  O  O19  1  0.256738  0.259648  0.215141  1
  F  F20  1  0.048054  0.976534  0.280392  1
  F  F21  1  0.549463  0.041063  0.281019  1
  F  F22  1  0.500191  0.270197  0.542360  1
  F  F23  1  0.765532  0.543332  0.994279  1
  F  F24  1  0.943658  0.208334  0.466821  1
  F  F25  1  0.759378  0.221182  0.767717  1
  F  F26  1  0.558527  0.270027  0.054132  1
  F  F27  1  0.264063  0.510467  0.537670  1
  F  F28  1  0.714542  0.492599  0.439027  1
  F  F29  1  0.455530  0.724304  0.957003  1
  F  F30  1  0.241625  0.792860  0.253502  1
  F  F31  1  0.726362  0.706357  0.763221  1
  F  F32  1  0.038677  0.768170  0.502845  1
  F  F33  1  0.235572  0.486215  0.036635  1
  F  F34  1  0.997084  0.469733  0.227891  1
  F  F35  1  0.714703  0.752037  0.261349  1
  F  F36  1  0.512076  0.747411  0.471473  1
  F  F37  1  0.235857  0.945054  0.952711  1
  F  F38  1  0.444183  0.960557  0.721656  1
  F  F39  1  0.950813  0.985924  0.729048  1
