# generated using pymatgen
data_KPPdS4
_symmetry_space_group_name_H-M   'P 1'
_cell_length_a   8.76129963
_cell_length_b   8.76129963
_cell_length_c   10.74041096
_cell_angle_alpha   90.00000000
_cell_angle_beta   90.00000000
_cell_angle_gamma   90.00000000
_symmetry_Int_Tables_number   1
_chemical_formula_structural   KPPdS4
_chemical_formula_sum   'K4 P4 Pd4 S16'
_cell_volume   824.43793220
_cell_formula_units_Z   4
loop_
 _symmetry_equiv_pos_site_id
 _symmetry_equiv_pos_as_xyz
  1  'x, y, z'
loop_
 _atom_site_type_symbol
 _atom_site_label
 _atom_site_symmetry_multiplicity
 _atom_site_fract_x
 _atom_site_fract_y
 _atom_site_fract_z
 _atom_site_occupancy
  K  K0  1  0.000000  0.500000  0.750000  1
  K  K1  1  0.500000  0.000000  0.750000  1
  K  K2  1  0.500000  0.000000  0.250000  1
  K  K3  1  0.000000  0.500000  0.250000  1
  P  P4  1  0.748938  0.748938  0.000000  1
  P  P5  1  0.251062  0.251062  0.000000  1
  P  P6  1  0.248938  0.751062  0.500000  1
  P  P7  1  0.751062  0.248938  0.500000  1
  Pd  Pd8  1  0.500000  0.500000  0.500000  1
  Pd  Pd9  1  0.000000  0.000000  0.000000  1
  Pd  Pd10  1  0.500000  0.500000  0.000000  1
  Pd  Pd11  1  0.000000  0.000000  0.500000  1
  S  S12  1  0.357460  0.357460  0.146415  1
  S  S13  1  0.642540  0.642540  0.146415  1
  S  S14  1  0.142540  0.857460  0.353585  1
  S  S15  1  0.857460  0.142540  0.353585  1
  S  S16  1  0.642540  0.642540  0.853585  1
  S  S17  1  0.357460  0.357460  0.853585  1
  S  S18  1  0.142540  0.857460  0.646415  1
  S  S19  1  0.857460  0.142540  0.646415  1
  S  S20  1  0.516958  0.232368  0.500000  1
  S  S21  1  0.483042  0.767632  0.500000  1
  S  S22  1  0.983042  0.732368  0.000000  1
  S  S23  1  0.016958  0.267632  0.000000  1
  S  S24  1  0.767632  0.483042  0.500000  1
  S  S25  1  0.232368  0.516958  0.500000  1
  S  S26  1  0.267632  0.016958  0.000000  1
  S  S27  1  0.732368  0.983042  0.000000  1
