# generated using pymatgen
data_Li4Mn5Cr2O12
_symmetry_space_group_name_H-M   'P 1'
_cell_length_a   5.14758234
_cell_length_b   9.11502902
_cell_length_c   10.15204459
_cell_angle_alpha   90.00000000
_cell_angle_beta   100.71520022
_cell_angle_gamma   90.00000000
_symmetry_Int_Tables_number   1
_chemical_formula_structural   Li4Mn5Cr2O12
_chemical_formula_sum   'Li8 Mn10 Cr4 O24'
_cell_volume   468.03195365
_cell_formula_units_Z   2
loop_
 _symmetry_equiv_pos_site_id
 _symmetry_equiv_pos_as_xyz
  1  'x, y, z'
loop_
 _atom_site_type_symbol
 _atom_site_label
 _atom_site_symmetry_multiplicity
 _atom_site_fract_x
 _atom_site_fract_y
 _atom_site_fract_z
 _atom_site_occupancy
  Li  Li0  1  0.009615  0.910634  0.260871  1
  Li  Li1  1  0.491715  0.924081  0.733072  1
  Li  Li2  1  0.760076  0.583472  0.496367  1
  Li  Li3  1  0.500939  0.585523  0.735122  1
  Li  Li4  1  0.990385  0.410634  0.739129  1
  Li  Li5  1  0.508285  0.424081  0.266928  1
  Li  Li6  1  0.239924  0.083472  0.503633  1
  Li  Li7  1  0.499061  0.085523  0.264878  1
  Mn  Mn8  1  0.250499  0.913996  0.002023  1
  Mn  Mn9  1  0.748620  0.925357  0.501756  1
  Mn  Mn10  1  0.996969  0.751725  0.739685  1
  Mn  Mn11  1  0.248880  0.578984  0.995014  1
  Mn  Mn12  1  0.510457  0.735220  0.259671  1
  Mn  Mn13  1  0.251380  0.425357  0.498244  1
  Mn  Mn14  1  0.749501  0.413996  0.997977  1
  Mn  Mn15  1  0.003031  0.251725  0.260315  1
  Mn  Mn16  1  0.489543  0.235220  0.740329  1
  Mn  Mn17  1  0.751120  0.078984  0.004986  1
  Cr  Cr18  1  0.248640  0.752114  0.495517  1
  Cr  Cr19  1  0.752410  0.746162  0.001462  1
  Cr  Cr20  1  0.247590  0.246162  0.998538  1
  Cr  Cr21  1  0.751360  0.252114  0.504483  1
  O  O22  1  0.107223  0.905515  0.608343  1
  O  O23  1  0.877752  0.912846  0.898876  1
  O  O24  1  0.125248  0.764996  0.111943  1
  O  O25  1  0.876289  0.773778  0.389357  1
  O  O26  1  0.607996  0.895608  0.114270  1
  O  O27  1  0.395033  0.910116  0.384953  1
  O  O28  1  0.140967  0.586107  0.610123  1
  O  O29  1  0.617236  0.770329  0.614473  1
  O  O30  1  0.895155  0.595474  0.883376  1
  O  O31  1  0.385379  0.732534  0.882537  1
  O  O32  1  0.607937  0.574940  0.102586  1
  O  O33  1  0.122248  0.412846  0.101124  1
  O  O34  1  0.381037  0.584868  0.390583  1
  O  O35  1  0.892777  0.405515  0.391657  1
  O  O36  1  0.123711  0.273778  0.610643  1
  O  O37  1  0.604967  0.410116  0.615047  1
  O  O38  1  0.874752  0.264996  0.888057  1
  O  O39  1  0.392004  0.395608  0.885730  1
  O  O40  1  0.104845  0.095474  0.116624  1
  O  O41  1  0.614621  0.232534  0.117463  1
  O  O42  1  0.382764  0.270329  0.385527  1
  O  O43  1  0.859033  0.086107  0.389877  1
  O  O44  1  0.618963  0.084868  0.609417  1
  O  O45  1  0.392063  0.074940  0.897414  1
