# generated using pymatgen
data_LiNi(PO3)4
_symmetry_space_group_name_H-M   'P 1'
_cell_length_a   7.26243188
_cell_length_b   8.76576051
_cell_length_c   7.63361520
_cell_angle_alpha   90.00000000
_cell_angle_beta   92.16316647
_cell_angle_gamma   90.00000000
_symmetry_Int_Tables_number   1
_chemical_formula_structural   LiNi(PO3)4
_chemical_formula_sum   'Li2 Ni2 P8 O24'
_cell_volume   485.61528003
_cell_formula_units_Z   2
loop_
 _symmetry_equiv_pos_site_id
 _symmetry_equiv_pos_as_xyz
  1  'x, y, z'
loop_
 _atom_site_type_symbol
 _atom_site_label
 _atom_site_symmetry_multiplicity
 _atom_site_fract_x
 _atom_site_fract_y
 _atom_site_fract_z
 _atom_site_occupancy
  Li  Li0  1  0.217616  0.787134  0.149137  1
  Li  Li1  1  0.782384  0.287134  0.850863  1
  Ni  Ni2  1  0.226387  0.018865  0.666580  1
  Ni  Ni3  1  0.773613  0.518865  0.333420  1
  P  P4  1  0.122085  0.378103  0.569096  1
  P  P5  1  0.150850  0.421272  0.195430  1
  P  P6  1  0.432254  0.606961  0.619390  1
  P  P7  1  0.578045  0.703457  0.970553  1
  P  P8  1  0.421955  0.203457  0.029447  1
  P  P9  1  0.567746  0.106961  0.380610  1
  P  P10  1  0.849150  0.921272  0.804570  1
  P  P11  1  0.877915  0.878103  0.430904  1
  O  O12  1  0.055819  0.914425  0.840851  1
  O  O13  1  0.048719  0.974436  0.451753  1
  O  O14  1  0.104855  0.232506  0.671125  1
  O  O15  1  0.203592  0.338448  0.380384  1
  O  O16  1  0.288413  0.472388  0.665774  1
  O  O17  1  0.370959  0.097872  0.880814  1
  O  O18  1  0.239909  0.303630  0.063917  1
  O  O19  1  0.413904  0.804068  0.989674  1
  O  O20  1  0.330364  0.754978  0.599219  1
  O  O21  1  0.237512  0.575132  0.188233  1
  O  O22  1  0.448498  0.053057  0.524758  1
  O  O23  1  0.563030  0.600541  0.795850  1
  O  O24  1  0.436970  0.100541  0.204150  1
  O  O25  1  0.551502  0.553057  0.475242  1
  O  O26  1  0.762488  0.075132  0.811767  1
  O  O27  1  0.669636  0.254978  0.400781  1
  O  O28  1  0.586096  0.304068  0.010326  1
  O  O29  1  0.760091  0.803630  0.936083  1
  O  O30  1  0.629041  0.597872  0.119186  1
  O  O31  1  0.711587  0.972388  0.334226  1
  O  O32  1  0.796408  0.838448  0.619616  1
  O  O33  1  0.895145  0.732506  0.328875  1
  O  O34  1  0.951281  0.474436  0.548247  1
  O  O35  1  0.944181  0.414425  0.159149  1
