# generated using pymatgen
data_KAl11O17
_symmetry_space_group_name_H-M   'P 1'
_cell_length_a   5.64925098
_cell_length_b   5.64925098
_cell_length_c   22.90910706
_cell_angle_alpha   90.00000000
_cell_angle_beta   90.00000000
_cell_angle_gamma   119.92570138
_symmetry_Int_Tables_number   1
_chemical_formula_structural   KAl11O17
_chemical_formula_sum   'K2 Al22 O34'
_cell_volume   633.64380614
_cell_formula_units_Z   2
loop_
 _symmetry_equiv_pos_site_id
 _symmetry_equiv_pos_as_xyz
  1  'x, y, z'
loop_
 _atom_site_type_symbol
 _atom_site_label
 _atom_site_symmetry_multiplicity
 _atom_site_fract_x
 _atom_site_fract_y
 _atom_site_fract_z
 _atom_site_occupancy
  K  K0  1  0.184457  0.815543  0.250000  1
  K  K1  1  0.815543  0.184457  0.750000  1
  Al  Al2  1  0.332572  0.667428  0.105679  1
  Al  Al3  1  0.332572  0.667428  0.394321  1
  Al  Al4  1  0.168141  0.831859  0.824745  1
  Al  Al5  1  0.166684  0.833316  0.975221  1
  Al  Al6  1  0.500000  0.500000  0.000000  1
  Al  Al7  1  0.168141  0.831859  0.675255  1
  Al  Al8  1  0.500000  0.500000  0.500000  1
  Al  Al9  1  0.166684  0.833316  0.524779  1
  Al  Al10  1  0.834805  0.668346  0.393578  1
  Al  Al11  1  0.834805  0.668346  0.106422  1
  Al  Al12  1  0.331654  0.165195  0.106422  1
  Al  Al13  1  0.331654  0.165195  0.393578  1
  Al  Al14  1  0.668346  0.834805  0.606422  1
  Al  Al15  1  0.668346  0.834805  0.893578  1
  Al  Al16  1  0.165195  0.331654  0.606422  1
  Al  Al17  1  0.831859  0.168141  0.324745  1
  Al  Al18  1  0.831859  0.168141  0.175255  1
  Al  Al19  1  0.833316  0.166684  0.475221  1
  Al  Al20  1  0.833316  0.166684  0.024779  1
  Al  Al21  1  0.165195  0.331654  0.893578  1
  Al  Al22  1  0.667428  0.332572  0.894321  1
  Al  Al23  1  0.667428  0.332572  0.605679  1
  O  O24  1  0.342992  0.657008  0.950578  1
  O  O25  1  0.342992  0.657008  0.549422  1
  O  O26  1  0.003063  0.505162  0.355316  1
  O  O27  1  0.003063  0.505162  0.144684  1
  O  O28  1  0.178547  0.821453  0.750000  1
  O  O29  1  0.814192  0.657220  0.549570  1
  O  O30  1  0.500207  0.499793  0.859077  1
  O  O31  1  0.500207  0.499793  0.640923  1
  O  O32  1  0.165972  0.834028  0.444783  1
  O  O33  1  0.499793  0.500207  0.140923  1
  O  O34  1  0.499793  0.500207  0.359077  1
  O  O35  1  0.165972  0.834028  0.055217  1
  O  O36  1  0.814192  0.657220  0.950430  1
  O  O37  1  0.494838  0.996937  0.144684  1
  O  O38  1  0.494838  0.996937  0.355316  1
  O  O39  1  0.657220  0.814192  0.450430  1
  O  O40  1  0.657220  0.814192  0.049570  1
  O  O41  1  0.002006  0.997994  0.354151  1
  O  O42  1  0.002006  0.997994  0.145849  1
  O  O43  1  0.997994  0.002006  0.645849  1
  O  O44  1  0.997994  0.002006  0.854151  1
  O  O45  1  0.342780  0.185808  0.950430  1
  O  O46  1  0.342780  0.185808  0.549570  1
  O  O47  1  0.505162  0.003063  0.644684  1
  O  O48  1  0.834028  0.165972  0.555217  1
  O  O49  1  0.505162  0.003063  0.855316  1
  O  O50  1  0.185808  0.342780  0.049570  1
  O  O51  1  0.185808  0.342780  0.450430  1
  O  O52  1  0.834028  0.165972  0.944783  1
  O  O53  1  0.821453  0.178547  0.250000  1
  O  O54  1  0.996937  0.494838  0.855316  1
  O  O55  1  0.996937  0.494838  0.644684  1
  O  O56  1  0.657008  0.342992  0.049422  1
  O  O57  1  0.657008  0.342992  0.450578  1
