# generated using pymatgen
data_CsAgO
_symmetry_space_group_name_H-M   'P 1'
_cell_length_a   8.03589289
_cell_length_b   8.03589289
_cell_length_c   8.03589289
_cell_angle_alpha   98.84466815
_cell_angle_beta   98.84466815
_cell_angle_gamma   133.82734501
_symmetry_Int_Tables_number   1
_chemical_formula_structural   CsAgO
_chemical_formula_sum   'Cs4 Ag4 O4'
_cell_volume   344.38501769
_cell_formula_units_Z   4
loop_
 _symmetry_equiv_pos_site_id
 _symmetry_equiv_pos_as_xyz
  1  'x, y, z'
loop_
 _atom_site_type_symbol
 _atom_site_label
 _atom_site_symmetry_multiplicity
 _atom_site_fract_x
 _atom_site_fract_y
 _atom_site_fract_z
 _atom_site_occupancy
  Cs  Cs0  1  1.000000  0.307976  0.307976  1
  Cs  Cs1  1  0.692024  0.000000  0.692024  1
  Cs  Cs2  1  1.000000  0.692024  0.692024  1
  Cs  Cs3  1  0.307976  0.000000  0.307976  1
  Ag  Ag4  1  0.641312  0.641312  0.282625  1
  Ag  Ag5  1  0.358688  0.358688  0.717375  1
  Ag  Ag6  1  0.641312  0.358688  0.000000  1
  Ag  Ag7  1  0.358688  0.641312  0.000000  1
  O  O8  1  0.500000  0.217653  0.717653  1
  O  O9  1  0.782347  0.500000  0.282347  1
  O  O10  1  0.217653  0.500000  0.717653  1
  O  O11  1  0.500000  0.782347  0.282347  1
