# generated using pymatgen
data_ZrSi
_symmetry_space_group_name_H-M   'P 1'
_cell_length_a   3.80333149
_cell_length_b   5.32811835
_cell_length_c   7.03014622
_cell_angle_alpha   90.00000000
_cell_angle_beta   90.00000000
_cell_angle_gamma   90.00000000
_symmetry_Int_Tables_number   1
_chemical_formula_structural   ZrSi
_chemical_formula_sum   'Zr4 Si4'
_cell_volume   142.46310322
_cell_formula_units_Z   4
loop_
 _symmetry_equiv_pos_site_id
 _symmetry_equiv_pos_as_xyz
  1  'x, y, z'
loop_
 _atom_site_type_symbol
 _atom_site_label
 _atom_site_symmetry_multiplicity
 _atom_site_fract_x
 _atom_site_fract_y
 _atom_site_fract_z
 _atom_site_occupancy
  Zr  Zr0  1  0.250000  0.124695  0.175583  1
  Zr  Zr1  1  0.750000  0.875305  0.824417  1
  Zr  Zr2  1  0.750000  0.624695  0.324417  1
  Zr  Zr3  1  0.250000  0.375305  0.675583  1
  Si  Si4  1  0.250000  0.638214  0.043349  1
  Si  Si5  1  0.750000  0.361786  0.956651  1
  Si  Si6  1  0.750000  0.138214  0.456651  1
  Si  Si7  1  0.250000  0.861786  0.543349  1
