# generated using pymatgen
data_YbAgSb
_symmetry_space_group_name_H-M   'P 1'
_cell_length_a   4.63275741
_cell_length_b   7.70196826
_cell_length_c   8.40349139
_cell_angle_alpha   90.00000000
_cell_angle_beta   90.00000000
_cell_angle_gamma   90.00000000
_symmetry_Int_Tables_number   1
_chemical_formula_structural   YbAgSb
_chemical_formula_sum   'Yb4 Ag4 Sb4'
_cell_volume   299.84792195
_cell_formula_units_Z   4
loop_
 _symmetry_equiv_pos_site_id
 _symmetry_equiv_pos_as_xyz
  1  'x, y, z'
loop_
 _atom_site_type_symbol
 _atom_site_label
 _atom_site_symmetry_multiplicity
 _atom_site_fract_x
 _atom_site_fract_y
 _atom_site_fract_z
 _atom_site_occupancy
  Yb  Yb0  1  0.250000  0.517298  0.199143  1
  Yb  Yb1  1  0.750000  0.482702  0.800857  1
  Yb  Yb2  1  0.250000  0.017298  0.300857  1
  Yb  Yb3  1  0.750000  0.982702  0.699143  1
  Ag  Ag4  1  0.250000  0.644903  0.566181  1
  Ag  Ag5  1  0.750000  0.355097  0.433819  1
  Ag  Ag6  1  0.250000  0.144903  0.933819  1
  Ag  Ag7  1  0.750000  0.855097  0.066181  1
  Sb  Sb8  1  0.750000  0.742877  0.389622  1
  Sb  Sb9  1  0.250000  0.257123  0.610378  1
  Sb  Sb10  1  0.750000  0.242877  0.110378  1
  Sb  Sb11  1  0.250000  0.757123  0.889622  1
