# generated using pymatgen
data_HCO
_symmetry_space_group_name_H-M   'P 1'
_cell_length_a   5.10491435
_cell_length_b   5.10918983
_cell_length_c   19.11063592
_cell_angle_alpha   84.40082634
_cell_angle_beta   84.52255810
_cell_angle_gamma   68.97822070
_symmetry_Int_Tables_number   1
_chemical_formula_structural   HCO
_chemical_formula_sum   'H14 C14 O14'
_cell_volume   462.06747391
_cell_formula_units_Z   14
loop_
 _symmetry_equiv_pos_site_id
 _symmetry_equiv_pos_as_xyz
  1  'x, y, z'
loop_
 _atom_site_type_symbol
 _atom_site_label
 _atom_site_symmetry_multiplicity
 _atom_site_fract_x
 _atom_site_fract_y
 _atom_site_fract_z
 _atom_site_occupancy
  H  H0  1  0.603665  0.527318  0.600971  1
  H  H1  1  0.151930  0.986213  0.169044  1
  H  H2  1  0.566353  0.263050  0.004325  1
  H  H3  1  0.368157  0.889339  0.818022  1
  H  H4  1  0.575573  0.843390  0.223866  1
  H  H5  1  0.606536  0.995859  0.945853  1
  H  H6  1  0.768596  0.889127  0.645596  1
  H  H7  1  0.907530  0.954037  0.111876  1
  H  H8  1  0.870914  0.993220  0.415277  1
  H  H9  1  0.784243  0.301215  0.532884  1
  H  H10  1  0.061476  0.880102  0.870330  1
  H  H11  1  0.502847  0.213562  0.424634  1
  H  H12  1  0.461166  0.589827  0.276260  1
  H  H13  1  0.707709  0.634772  0.710347  1
  C  C14  1  0.275022  0.045649  0.025683  1
  C  C15  1  0.434967  0.514442  0.885251  1
  C  C16  1  0.767622  0.694909  0.322458  1
  C  C17  1  0.454036  0.167479  0.974660  1
  C  C18  1  0.792954  0.465383  0.564595  1
  C  C19  1  0.867732  0.718701  0.685002  1
  C  C20  1  0.609325  0.777269  0.468118  1
  C  C21  1  0.991614  0.100814  0.131795  1
  C  C22  1  0.968003  0.838656  0.742773  1
  C  C23  1  0.645885  0.647241  0.257756  1
  C  C24  1  0.248799  0.755059  0.839092  1
  C  C25  1  0.068503  0.354951  0.601556  1
  C  C26  1  0.653155  0.001980  0.414587  1
  C  C27  1  0.758307  0.338398  0.166622  1
  O  O28  1  0.166739  0.642745  0.780963  1
  O  O29  1  0.437529  0.664784  0.464906  1
  O  O30  1  0.283836  0.378309  0.925589  1
  O  O31  1  0.286996  0.802256  0.026981  1
  O  O32  1  0.799769  0.705764  0.517979  1
  O  O33  1  0.117679  0.228780  0.073645  1
  O  O34  1  0.102099  0.496444  0.654478  1
  O  O35  1  0.596694  0.946526  0.345810  1
  O  O36  1  0.865265  0.085821  0.755007  1
  O  O37  1  0.517714  0.438861  0.149053  1
  O  O38  1  0.974519  0.535497  0.350482  1
  O  O39  1  0.686939  0.458145  0.888430  1
  O  O40  1  0.853447  0.423437  0.221314  1
  O  O41  1  0.264868  0.144708  0.584514  1
