# generated using pymatgen
data_H3PbCI3NF3
_symmetry_space_group_name_H-M   'P 1'
_cell_length_a   6.46717672
_cell_length_b   6.47663053
_cell_length_c   6.55914430
_cell_angle_alpha   90.00000000
_cell_angle_beta   91.15478900
_cell_angle_gamma   90.00000000
_symmetry_Int_Tables_number   1
_chemical_formula_structural   H3PbCI3NF3
_chemical_formula_sum   'H3 Pb1 C1 I3 N1 F3'
_cell_volume   274.67733287
_cell_formula_units_Z   1
loop_
 _symmetry_equiv_pos_site_id
 _symmetry_equiv_pos_as_xyz
  1  'x, y, z'
loop_
 _atom_site_type_symbol
 _atom_site_label
 _atom_site_symmetry_multiplicity
 _atom_site_fract_x
 _atom_site_fract_y
 _atom_site_fract_z
 _atom_site_occupancy
  H  H0  1  0.178972  0.000000  0.814205  1
  H  H1  1  0.217842  0.866103  0.033449  1
  H  H2  1  0.217842  0.133897  0.033449  1
  Pb  Pb3  1  0.474561  0.500000  0.524696  1
  C  C4  1  0.922172  0.000000  0.012339  1
  I  I5  1  0.950676  0.500000  0.496029  1
  I  I6  1  0.391776  0.500000  0.029094  1
  I  I7  1  0.407726  0.000000  0.508070  1
  N  N8  1  0.147397  0.000000  0.972149  1
  F  F9  1  0.836886  0.829724  0.931545  1
  F  F10  1  0.894169  0.000000  0.213826  1
  F  F11  1  0.836886  0.170276  0.931545  1
