# generated using pymatgen
data_PbAuO2
_symmetry_space_group_name_H-M   'P 1'
_cell_length_a   6.58698895
_cell_length_b   3.66959874
_cell_length_c   6.66071824
_cell_angle_alpha   90.00000000
_cell_angle_beta   111.02436633
_cell_angle_gamma   90.00000000
_symmetry_Int_Tables_number   1
_chemical_formula_structural   PbAuO2
_chemical_formula_sum   'Pb2 Au2 O4'
_cell_volume   150.28213988
_cell_formula_units_Z   2
loop_
 _symmetry_equiv_pos_site_id
 _symmetry_equiv_pos_as_xyz
  1  'x, y, z'
loop_
 _atom_site_type_symbol
 _atom_site_label
 _atom_site_symmetry_multiplicity
 _atom_site_fract_x
 _atom_site_fract_y
 _atom_site_fract_z
 _atom_site_occupancy
  Pb  Pb0  1  0.000000  0.000000  0.000000  1
  Pb  Pb1  1  0.500000  0.500000  0.000000  1
  Au  Au2  1  0.500000  0.000000  0.500000  1
  Au  Au3  1  0.000000  0.500000  0.500000  1
  O  O4  1  0.138952  0.500000  0.825512  1
  O  O5  1  0.415270  0.000000  0.174997  1
  O  O6  1  0.861048  0.500000  0.174488  1
  O  O7  1  0.584730  0.000000  0.825003  1
