# generated using pymatgen
data_SmP5
_symmetry_space_group_name_H-M   'P 1'
_cell_length_a   5.01287410
_cell_length_b   9.53905417
_cell_length_c   5.42726390
_cell_angle_alpha   90.00000000
_cell_angle_beta   102.09736059
_cell_angle_gamma   90.00000000
_symmetry_Int_Tables_number   1
_chemical_formula_structural   SmP5
_chemical_formula_sum   'Sm2 P10'
_cell_volume   253.75810798
_cell_formula_units_Z   2
loop_
 _symmetry_equiv_pos_site_id
 _symmetry_equiv_pos_as_xyz
  1  'x, y, z'
loop_
 _atom_site_type_symbol
 _atom_site_label
 _atom_site_symmetry_multiplicity
 _atom_site_fract_x
 _atom_site_fract_y
 _atom_site_fract_z
 _atom_site_occupancy
  Sm  Sm0  1  0.993056  0.250000  0.652397  1
  Sm  Sm1  1  0.006944  0.750000  0.347603  1
  P  P2  1  0.715791  0.250000  0.102641  1
  P  P3  1  0.284209  0.750000  0.897359  1
  P  P4  1  0.384328  0.408688  0.046420  1
  P  P5  1  0.615672  0.908688  0.953580  1
  P  P6  1  0.615672  0.591312  0.953580  1
  P  P7  1  0.384328  0.091312  0.046420  1
  P  P8  1  0.289996  0.470604  0.403781  1
  P  P9  1  0.710004  0.970604  0.596219  1
  P  P10  1  0.710004  0.529396  0.596219  1
  P  P11  1  0.289996  0.029396  0.403781  1
