# generated using pymatgen
data_SrLi2(SiN2)2
_symmetry_space_group_name_H-M   'P 1'
_cell_length_a   10.77563100
_cell_length_b   10.77563100
_cell_length_c   10.77563100
_cell_angle_alpha   90.00000000
_cell_angle_beta   90.00000000
_cell_angle_gamma   90.00000000
_symmetry_Int_Tables_number   1
_chemical_formula_structural   SrLi2(SiN2)2
_chemical_formula_sum   'Sr12 Li24 Si24 N48'
_cell_volume   1251.20402573
_cell_formula_units_Z   12
loop_
 _symmetry_equiv_pos_site_id
 _symmetry_equiv_pos_as_xyz
  1  'x, y, z'
loop_
 _atom_site_type_symbol
 _atom_site_label
 _atom_site_symmetry_multiplicity
 _atom_site_fract_x
 _atom_site_fract_y
 _atom_site_fract_z
 _atom_site_occupancy
  Sr  Sr0  1  0.500000  0.000000  0.000000  1
  Sr  Sr1  1  0.000000  0.000000  0.500000  1
  Sr  Sr2  1  0.000000  0.500000  0.000000  1
  Sr  Sr3  1  0.500000  0.500000  0.500000  1
  Sr  Sr4  1  0.218239  0.218239  0.218239  1
  Sr  Sr5  1  0.281761  0.781761  0.718239  1
  Sr  Sr6  1  0.718239  0.281761  0.781761  1
  Sr  Sr7  1  0.781761  0.718239  0.281761  1
  Sr  Sr8  1  0.781761  0.781761  0.781761  1
  Sr  Sr9  1  0.718239  0.218239  0.281761  1
  Sr  Sr10  1  0.281761  0.718239  0.218239  1
  Sr  Sr11  1  0.218239  0.281761  0.718239  1
  Li  Li12  1  0.232316  0.973390  0.110188  1
  Li  Li13  1  0.267684  0.026610  0.610188  1
  Li  Li14  1  0.732316  0.526610  0.889812  1
  Li  Li15  1  0.767684  0.473390  0.389812  1
  Li  Li16  1  0.110188  0.232316  0.973390  1
  Li  Li17  1  0.973390  0.110188  0.232316  1
  Li  Li18  1  0.389812  0.767684  0.473390  1
  Li  Li19  1  0.026610  0.610188  0.267684  1
  Li  Li20  1  0.610188  0.267684  0.026610  1
  Li  Li21  1  0.526610  0.889812  0.732316  1
  Li  Li22  1  0.889812  0.732316  0.526610  1
  Li  Li23  1  0.473390  0.389812  0.767684  1
  Li  Li24  1  0.767684  0.026610  0.889812  1
  Li  Li25  1  0.732316  0.973390  0.389812  1
  Li  Li26  1  0.267684  0.473390  0.110188  1
  Li  Li27  1  0.232316  0.526610  0.610188  1
  Li  Li28  1  0.889812  0.767684  0.026610  1
  Li  Li29  1  0.026610  0.889812  0.767684  1
  Li  Li30  1  0.610188  0.232316  0.526610  1
  Li  Li31  1  0.973390  0.389812  0.732316  1
  Li  Li32  1  0.389812  0.732316  0.973390  1
  Li  Li33  1  0.473390  0.110188  0.267684  1
  Li  Li34  1  0.110188  0.267684  0.473390  1
  Li  Li35  1  0.526610  0.610188  0.232316  1
  Si  Si36  1  0.479836  0.371204  0.243543  1
  Si  Si37  1  0.020164  0.628796  0.743543  1
  Si  Si38  1  0.979836  0.128796  0.756457  1
  Si  Si39  1  0.520164  0.871204  0.256457  1
  Si  Si40  1  0.243543  0.479836  0.371204  1
  Si  Si41  1  0.371204  0.243543  0.479836  1
  Si  Si42  1  0.256457  0.520164  0.871204  1
  Si  Si43  1  0.628796  0.743543  0.020164  1
  Si  Si44  1  0.743543  0.020164  0.628796  1
  Si  Si45  1  0.128796  0.756457  0.979836  1
  Si  Si46  1  0.756457  0.979836  0.128796  1
  Si  Si47  1  0.871204  0.256457  0.520164  1
  Si  Si48  1  0.520164  0.628796  0.756457  1
  Si  Si49  1  0.979836  0.371204  0.256457  1
  Si  Si50  1  0.020164  0.871204  0.243543  1
  Si  Si51  1  0.479836  0.128796  0.743543  1
  Si  Si52  1  0.756457  0.520164  0.628796  1
  Si  Si53  1  0.628796  0.756457  0.520164  1
  Si  Si54  1  0.743543  0.479836  0.128796  1
  Si  Si55  1  0.371204  0.256457  0.979836  1
  Si  Si56  1  0.256457  0.979836  0.371204  1
  Si  Si57  1  0.871204  0.243543  0.020164  1
  Si  Si58  1  0.243543  0.020164  0.871204  1
  Si  Si59  1  0.128796  0.743543  0.479836  1
  N  N60  1  0.272496  0.124564  0.992388  1
  N  N61  1  0.227504  0.875436  0.492388  1
  N  N62  1  0.772496  0.375436  0.007612  1
  N  N63  1  0.727504  0.624564  0.507612  1
  N  N64  1  0.992388  0.272496  0.124564  1
  N  N65  1  0.124564  0.992388  0.272496  1
  N  N66  1  0.507612  0.727504  0.624564  1
  N  N67  1  0.875436  0.492388  0.227504  1
  N  N68  1  0.492388  0.227504  0.875436  1
  N  N69  1  0.375436  0.007612  0.772496  1
  N  N70  1  0.007612  0.772496  0.375436  1
  N  N71  1  0.624564  0.507612  0.727504  1
  N  N72  1  0.727504  0.875436  0.007612  1
  N  N73  1  0.772496  0.124564  0.507612  1
  N  N74  1  0.227504  0.624564  0.992388  1
  N  N75  1  0.272496  0.375436  0.492388  1
  N  N76  1  0.007612  0.727504  0.875436  1
  N  N77  1  0.875436  0.007612  0.727504  1
  N  N78  1  0.492388  0.272496  0.375436  1
  N  N79  1  0.124564  0.507612  0.772496  1
  N  N80  1  0.507612  0.772496  0.124564  1
  N  N81  1  0.624564  0.992388  0.227504  1
  N  N82  1  0.992388  0.227504  0.624564  1
  N  N83  1  0.375436  0.492388  0.272496  1
  N  N84  1  0.267918  0.125072  0.443038  1
  N  N85  1  0.232082  0.874928  0.943038  1
  N  N86  1  0.767918  0.374928  0.556962  1
  N  N87  1  0.732082  0.625072  0.056962  1
  N  N88  1  0.443038  0.267918  0.125072  1
  N  N89  1  0.125072  0.443038  0.267918  1
  N  N90  1  0.056962  0.732082  0.625072  1
  N  N91  1  0.874928  0.943038  0.232082  1
  N  N92  1  0.943038  0.232082  0.874928  1
  N  N93  1  0.374928  0.556962  0.767918  1
  N  N94  1  0.556962  0.767918  0.374928  1
  N  N95  1  0.625072  0.056962  0.732082  1
  N  N96  1  0.732082  0.874928  0.556962  1
  N  N97  1  0.767918  0.125072  0.056962  1
  N  N98  1  0.232082  0.625072  0.443038  1
  N  N99  1  0.267918  0.374928  0.943038  1
  N  N100  1  0.556962  0.732082  0.874928  1
  N  N101  1  0.874928  0.556962  0.732082  1
  N  N102  1  0.943038  0.267918  0.374928  1
  N  N103  1  0.125072  0.056962  0.767918  1
  N  N104  1  0.056962  0.767918  0.125072  1
  N  N105  1  0.625072  0.443038  0.232082  1
  N  N106  1  0.443038  0.232082  0.625072  1
  N  N107  1  0.374928  0.943038  0.267918  1
