# generated using pymatgen
data_Si
_symmetry_space_group_name_H-M   'P 1'
_cell_length_a   8.74815562
_cell_length_b   8.74815562
_cell_length_c   8.74815562
_cell_angle_alpha   109.47122063
_cell_angle_beta   109.47122063
_cell_angle_gamma   109.47122063
_symmetry_Int_Tables_number   1
_chemical_formula_structural   Si
_chemical_formula_sum   Si23
_cell_volume   515.38005659
_cell_formula_units_Z   23
loop_
 _symmetry_equiv_pos_site_id
 _symmetry_equiv_pos_as_xyz
  1  'x, y, z'
loop_
 _atom_site_type_symbol
 _atom_site_label
 _atom_site_symmetry_multiplicity
 _atom_site_fract_x
 _atom_site_fract_y
 _atom_site_fract_z
 _atom_site_occupancy
  Si  Si0  1  0.830940  0.558540  0.558540  1
  Si  Si1  1  0.169060  0.727600  0.727600  1
  Si  Si2  1  1.000000  0.441460  0.272400  1
  Si  Si3  1  0.558540  0.558540  0.830940  1
  Si  Si4  1  1.000000  0.272400  0.441460  1
  Si  Si5  1  0.727600  0.727600  0.169060  1
  Si  Si6  1  0.441460  0.272400  1.000000  1
  Si  Si7  1  0.272400  0.441460  0.000000  1
  Si  Si8  1  0.558540  0.830940  0.558540  1
  Si  Si9  1  0.272400  1.000000  0.441460  1
  Si  Si10  1  0.441460  1.000000  0.272400  1
  Si  Si11  1  0.727600  0.169060  0.727600  1
  Si  Si12  1  0.000000  0.000000  0.000000  1
  Si  Si13  1  0.728740  0.728740  0.728740  1
  Si  Si14  1  0.271260  0.000000  1.000000  1
  Si  Si15  1  0.000000  0.271260  0.000000  1
  Si  Si16  1  1.000000  1.000000  0.271260  1
  Si  Si17  1  0.250000  0.750000  0.500000  1
  Si  Si18  1  0.750000  0.250000  0.500000  1
  Si  Si19  1  0.750000  0.500000  0.250000  1
  Si  Si20  1  0.250000  0.500000  0.750000  1
  Si  Si21  1  0.500000  0.250000  0.750000  1
  Si  Si22  1  0.500000  0.750000  0.250000  1
