# generated using pymatgen
data_LaP3
_symmetry_space_group_name_H-M   'P 1'
_cell_length_a   5.84547722
_cell_length_b   5.84547722
_cell_length_c   5.39202808
_cell_angle_alpha   90.00000000
_cell_angle_beta   90.00000000
_cell_angle_gamma   120.00000000
_symmetry_Int_Tables_number   1
_chemical_formula_structural   LaP3
_chemical_formula_sum   'La2 P6'
_cell_volume   159.55951997
_cell_formula_units_Z   2
loop_
 _symmetry_equiv_pos_site_id
 _symmetry_equiv_pos_as_xyz
  1  'x, y, z'
loop_
 _atom_site_type_symbol
 _atom_site_label
 _atom_site_symmetry_multiplicity
 _atom_site_fract_x
 _atom_site_fract_y
 _atom_site_fract_z
 _atom_site_occupancy
  La  La0  1  0.666667  0.333333  0.250000  1
  La  La1  1  0.333333  0.666667  0.750000  1
  P  P2  1  0.863441  0.136559  0.750000  1
  P  P3  1  0.273119  0.136559  0.750000  1
  P  P4  1  0.863441  0.726881  0.750000  1
  P  P5  1  0.136559  0.863441  0.250000  1
  P  P6  1  0.726881  0.863441  0.250000  1
  P  P7  1  0.136559  0.273119  0.250000  1
