# generated using pymatgen
data_K3NpO2F5
_symmetry_space_group_name_H-M   'P 1'
_cell_length_a   11.29458938
_cell_length_b   11.29458938
_cell_length_c   11.29458938
_cell_angle_alpha   131.46932719
_cell_angle_beta   131.46932719
_cell_angle_gamma   71.06846938
_symmetry_Int_Tables_number   1
_chemical_formula_structural   K3NpO2F5
_chemical_formula_sum   'K12 Np4 O8 F20'
_cell_volume   792.09517081
_cell_formula_units_Z   4
loop_
 _symmetry_equiv_pos_site_id
 _symmetry_equiv_pos_as_xyz
  1  'x, y, z'
loop_
 _atom_site_type_symbol
 _atom_site_label
 _atom_site_symmetry_multiplicity
 _atom_site_fract_x
 _atom_site_fract_y
 _atom_site_fract_z
 _atom_site_occupancy
  K  K0  1  0.348106  0.823652  0.945208  1
  K  K1  1  0.573652  0.128444  0.975546  1
  K  K2  1  0.152897  0.598106  0.024454  1
  K  K3  1  0.878444  0.402897  0.054792  1
  K  K4  1  0.401894  0.426348  0.554792  1
  K  K5  1  0.176348  0.121556  0.524454  1
  K  K6  1  0.597103  0.651894  0.475547  1
  K  K7  1  0.871556  0.847103  0.445208  1
  K  K8  1  0.000000  0.000000  0.000000  1
  K  K9  1  0.750000  0.250000  0.500000  1
  K  K10  1  0.500000  0.500000  0.000000  1
  K  K11  1  0.250000  0.750000  0.500000  1
  Np  Np12  1  0.978745  0.478745  0.500000  1
  Np  Np13  1  0.228745  0.228745  0.000000  1
  Np  Np14  1  0.771255  0.771255  0.000000  1
  Np  Np15  1  0.521255  0.021255  0.500000  1
  O  O16  1  0.035464  0.269181  0.848024  1
  O  O17  1  0.019181  0.671157  0.733717  1
  O  O18  1  0.937440  0.285464  0.266283  1
  O  O19  1  0.421157  0.187440  0.151976  1
  O  O20  1  0.714536  0.980819  0.651976  1
  O  O21  1  0.730819  0.578843  0.766283  1
  O  O22  1  0.812560  0.964536  0.233717  1
  O  O23  1  0.328843  0.062560  0.348024  1
  F  F24  1  0.432507  0.751351  0.224181  1
  F  F25  1  0.501351  0.777170  0.818845  1
  F  F26  1  0.958325  0.682507  0.181155  1
  F  F27  1  0.527170  0.208325  0.775819  1
  F  F28  1  0.317493  0.498649  0.275819  1
  F  F29  1  0.248649  0.472830  0.681155  1
  F  F30  1  0.791675  0.567493  0.318845  1
  F  F31  1  0.222830  0.041675  0.724181  1
  F  F32  1  0.395358  0.895358  0.500000  1
  F  F33  1  0.645358  0.645358  0.000000  1
  F  F34  1  0.354642  0.354642  0.000000  1
  F  F35  1  0.104642  0.604642  0.500000  1
  F  F36  1  0.111261  0.987421  0.837105  1
  F  F37  1  0.737421  0.400317  0.376160  1
  F  F38  1  0.024156  0.361261  0.623840  1
  F  F39  1  0.150317  0.274156  0.162895  1
  F  F40  1  0.638739  0.262579  0.662895  1
  F  F41  1  0.012579  0.849683  0.123840  1
  F  F42  1  0.725844  0.888739  0.876160  1
  F  F43  1  0.599683  0.975844  0.337105  1
