# generated using pymatgen
data_ErCuGe
_symmetry_space_group_name_H-M   'P 1'
_cell_length_a   4.25172979
_cell_length_b   4.25172979
_cell_length_c   7.10384758
_cell_angle_alpha   90.00000000
_cell_angle_beta   90.00000000
_cell_angle_gamma   120.00000000
_symmetry_Int_Tables_number   1
_chemical_formula_structural   ErCuGe
_chemical_formula_sum   'Er2 Cu2 Ge2'
_cell_volume   111.21300582
_cell_formula_units_Z   2
loop_
 _symmetry_equiv_pos_site_id
 _symmetry_equiv_pos_as_xyz
  1  'x, y, z'
loop_
 _atom_site_type_symbol
 _atom_site_label
 _atom_site_symmetry_multiplicity
 _atom_site_fract_x
 _atom_site_fract_y
 _atom_site_fract_z
 _atom_site_occupancy
  Er  Er0  1  0.000000  0.000000  0.738535  1
  Er  Er1  1  0.000000  0.000000  0.238535  1
  Cu  Cu2  1  0.666667  0.333333  0.526127  1
  Cu  Cu3  1  0.333333  0.666667  0.026127  1
  Ge  Ge4  1  0.333333  0.666667  0.461738  1
  Ge  Ge5  1  0.666667  0.333333  0.961738  1
