# generated using pymatgen
data_HAuO2
_symmetry_space_group_name_H-M   'P 1'
_cell_length_a   4.15349018
_cell_length_b   4.72067027
_cell_length_c   5.49289000
_cell_angle_alpha   92.61218976
_cell_angle_beta   90.44398398
_cell_angle_gamma   114.99326364
_symmetry_Int_Tables_number   1
_chemical_formula_structural   HAuO2
_chemical_formula_sum   'H2 Au2 O4'
_cell_volume   97.47034475
_cell_formula_units_Z   2
loop_
 _symmetry_equiv_pos_site_id
 _symmetry_equiv_pos_as_xyz
  1  'x, y, z'
loop_
 _atom_site_type_symbol
 _atom_site_label
 _atom_site_symmetry_multiplicity
 _atom_site_fract_x
 _atom_site_fract_y
 _atom_site_fract_z
 _atom_site_occupancy
  H  H0  1  0.926970  0.980790  0.248630  1
  H  H1  1  0.073030  0.019210  0.751370  1
  Au  Au2  1  0.000000  0.500000  0.000000  1
  Au  Au3  1  0.500000  0.500000  0.500000  1
  O  O4  1  0.241560  0.280370  0.797060  1
  O  O5  1  0.953070  0.723180  0.704710  1
  O  O6  1  0.758440  0.719630  0.202940  1
  O  O7  1  0.046930  0.276820  0.295290  1
