# generated using pymatgen
data_TlGeBr3
_symmetry_space_group_name_H-M   'P 1'
_cell_length_a   4.22387612
_cell_length_b   9.76670511
_cell_length_c   15.61516796
_cell_angle_alpha   90.00000000
_cell_angle_beta   90.00000000
_cell_angle_gamma   90.00000000
_symmetry_Int_Tables_number   1
_chemical_formula_structural   TlGeBr3
_chemical_formula_sum   'Tl4 Ge4 Br12'
_cell_volume   644.17802797
_cell_formula_units_Z   4
loop_
 _symmetry_equiv_pos_site_id
 _symmetry_equiv_pos_as_xyz
  1  'x, y, z'
loop_
 _atom_site_type_symbol
 _atom_site_label
 _atom_site_symmetry_multiplicity
 _atom_site_fract_x
 _atom_site_fract_y
 _atom_site_fract_z
 _atom_site_occupancy
  Tl  Tl0  1  0.750000  0.067907  0.329433  1
  Tl  Tl1  1  0.250000  0.932093  0.670567  1
  Tl  Tl2  1  0.750000  0.567907  0.170567  1
  Tl  Tl3  1  0.250000  0.432093  0.829433  1
  Ge  Ge4  1  0.250000  0.165969  0.060836  1
  Ge  Ge5  1  0.750000  0.834031  0.939164  1
  Ge  Ge6  1  0.250000  0.665969  0.439164  1
  Ge  Ge7  1  0.750000  0.334031  0.560836  1
  Br  Br8  1  0.750000  0.334418  0.993021  1
  Br  Br9  1  0.250000  0.665582  0.006979  1
  Br  Br10  1  0.750000  0.834418  0.506979  1
  Br  Br11  1  0.250000  0.165582  0.493021  1
  Br  Br12  1  0.250000  0.011899  0.886137  1
  Br  Br13  1  0.750000  0.988101  0.113863  1
  Br  Br14  1  0.250000  0.511899  0.613863  1
  Br  Br15  1  0.750000  0.488101  0.386137  1
  Br  Br16  1  0.250000  0.294402  0.209280  1
  Br  Br17  1  0.750000  0.705598  0.790720  1
  Br  Br18  1  0.250000  0.794402  0.290720  1
  Br  Br19  1  0.750000  0.205598  0.709280  1
