# generated using pymatgen
data_HfCr2
_symmetry_space_group_name_H-M   'P 1'
_cell_length_a   5.03487936
_cell_length_b   5.03487936
_cell_length_c   16.30448121
_cell_angle_alpha   90.00000000
_cell_angle_beta   90.00000000
_cell_angle_gamma   120.00000000
_symmetry_Int_Tables_number   1
_chemical_formula_structural   HfCr2
_chemical_formula_sum   'Hf8 Cr16'
_cell_volume   357.94455004
_cell_formula_units_Z   8
loop_
 _symmetry_equiv_pos_site_id
 _symmetry_equiv_pos_as_xyz
  1  'x, y, z'
loop_
 _atom_site_type_symbol
 _atom_site_label
 _atom_site_symmetry_multiplicity
 _atom_site_fract_x
 _atom_site_fract_y
 _atom_site_fract_z
 _atom_site_occupancy
  Hf  Hf0  1  0.000000  0.000000  0.094465  1
  Hf  Hf1  1  0.000000  0.000000  0.594465  1
  Hf  Hf2  1  0.000000  0.000000  0.905535  1
  Hf  Hf3  1  0.000000  0.000000  0.405535  1
  Hf  Hf4  1  0.333333  0.666667  0.843962  1
  Hf  Hf5  1  0.666667  0.333333  0.343962  1
  Hf  Hf6  1  0.666667  0.333333  0.156038  1
  Hf  Hf7  1  0.333333  0.666667  0.656038  1
  Cr  Cr8  1  0.500000  0.000000  0.000000  1
  Cr  Cr9  1  0.500000  0.000000  0.500000  1
  Cr  Cr10  1  0.000000  0.500000  0.000000  1
  Cr  Cr11  1  0.500000  0.500000  0.000000  1
  Cr  Cr12  1  0.500000  0.500000  0.500000  1
  Cr  Cr13  1  0.000000  0.500000  0.500000  1
  Cr  Cr14  1  0.333333  0.666667  0.123436  1
  Cr  Cr15  1  0.666667  0.333333  0.623436  1
  Cr  Cr16  1  0.666667  0.333333  0.876564  1
  Cr  Cr17  1  0.333333  0.666667  0.376564  1
  Cr  Cr18  1  0.164483  0.328965  0.250000  1
  Cr  Cr19  1  0.835517  0.671035  0.750000  1
  Cr  Cr20  1  0.671035  0.835517  0.250000  1
  Cr  Cr21  1  0.164483  0.835517  0.250000  1
  Cr  Cr22  1  0.835517  0.164483  0.750000  1
  Cr  Cr23  1  0.328965  0.164483  0.750000  1
