# generated using pymatgen
data_La3Sn4
_symmetry_space_group_name_H-M   'P 1'
_cell_length_a   6.42683440
_cell_length_b   6.42683440
_cell_length_c   16.03025856
_cell_angle_alpha   90.00000000
_cell_angle_beta   90.00000000
_cell_angle_gamma   138.35862599
_symmetry_Int_Tables_number   1
_chemical_formula_structural   La3Sn4
_chemical_formula_sum   'La6 Sn8'
_cell_volume   439.95426567
_cell_formula_units_Z   2
loop_
 _symmetry_equiv_pos_site_id
 _symmetry_equiv_pos_as_xyz
  1  'x, y, z'
loop_
 _atom_site_type_symbol
 _atom_site_label
 _atom_site_symmetry_multiplicity
 _atom_site_fract_x
 _atom_site_fract_y
 _atom_site_fract_z
 _atom_site_occupancy
  La  La0  1  0.671800  0.328200  0.097557  1
  La  La1  1  0.957285  0.042715  0.250000  1
  La  La2  1  0.671800  0.328200  0.402443  1
  La  La3  1  0.328200  0.671800  0.597557  1
  La  La4  1  0.042715  0.957285  0.750000  1
  La  La5  1  0.328200  0.671800  0.902443  1
  Sn  Sn6  1  0.000000  0.000000  0.000000  1
  Sn  Sn7  1  0.383677  0.616323  0.107024  1
  Sn  Sn8  1  0.227210  0.772790  0.250000  1
  Sn  Sn9  1  0.383677  0.616323  0.392976  1
  Sn  Sn10  1  0.000000  0.000000  0.500000  1
  Sn  Sn11  1  0.616323  0.383677  0.607024  1
  Sn  Sn12  1  0.772790  0.227210  0.750000  1
  Sn  Sn13  1  0.616323  0.383677  0.892976  1
