# generated using pymatgen
data_Rb(Mg4Al3)4
_symmetry_space_group_name_H-M   'P 1'
_cell_length_a   9.25868983
_cell_length_b   9.25868983
_cell_length_c   9.25868983
_cell_angle_alpha   109.67109164
_cell_angle_beta   109.67109164
_cell_angle_gamma   109.67109164
_symmetry_Int_Tables_number   1
_chemical_formula_structural   Rb(Mg4Al3)4
_chemical_formula_sum   'Rb1 Mg16 Al12'
_cell_volume   606.41621307
_cell_formula_units_Z   1
loop_
 _symmetry_equiv_pos_site_id
 _symmetry_equiv_pos_as_xyz
  1  'x, y, z'
loop_
 _atom_site_type_symbol
 _atom_site_label
 _atom_site_symmetry_multiplicity
 _atom_site_fract_x
 _atom_site_fract_y
 _atom_site_fract_z
 _atom_site_occupancy
  Rb  Rb0  1  0.371937  0.371937  0.371937  1
  Mg  Mg1  1  0.653834  0.998071  0.998071  1
  Mg  Mg2  1  0.285142  0.615352  0.615352  1
  Mg  Mg3  1  0.714111  0.313115  0.313115  1
  Mg  Mg4  1  0.000220  0.683620  0.395813  1
  Mg  Mg5  1  0.395813  0.000220  0.683620  1
  Mg  Mg6  1  0.615352  0.615352  0.285142  1
  Mg  Mg7  1  0.998071  0.998071  0.653834  1
  Mg  Mg8  1  0.683620  0.395813  0.000220  1
  Mg  Mg9  1  0.313115  0.714111  0.313115  1
  Mg  Mg10  1  0.313115  0.313115  0.714111  1
  Mg  Mg11  1  0.683620  0.000220  0.395813  1
  Mg  Mg12  1  0.998071  0.653834  0.998071  1
  Mg  Mg13  1  0.615352  0.285142  0.615352  1
  Mg  Mg14  1  0.395813  0.683620  0.000220  1
  Mg  Mg15  1  0.000220  0.395813  0.683620  1
  Mg  Mg16  1  0.995372  0.995372  0.995372  1
  Al  Al17  1  0.823229  0.635791  0.635791  1
  Al  Al18  1  0.989052  0.362933  0.180441  1
  Al  Al19  1  0.635791  0.823229  0.635791  1
  Al  Al20  1  0.362933  0.180441  0.989052  1
  Al  Al21  1  0.814629  0.178294  0.814629  1
  Al  Al22  1  0.180441  0.362933  0.989052  1
  Al  Al23  1  0.180441  0.989052  0.362933  1
  Al  Al24  1  0.814629  0.814629  0.178294  1
  Al  Al25  1  0.362933  0.989052  0.180441  1
  Al  Al26  1  0.635791  0.635791  0.823229  1
  Al  Al27  1  0.989052  0.180441  0.362933  1
  Al  Al28  1  0.178294  0.814629  0.814629  1
