# generated using pymatgen
data_Nd3Cr
_symmetry_space_group_name_H-M   'P 1'
_cell_length_a   6.14371501
_cell_length_b   6.14371501
_cell_length_c   6.14371501
_cell_angle_alpha   133.57403233
_cell_angle_beta   133.57403233
_cell_angle_gamma   67.75409136
_symmetry_Int_Tables_number   1
_chemical_formula_structural   Nd3Cr
_chemical_formula_sum   'Nd3 Cr1'
_cell_volume   119.64044887
_cell_formula_units_Z   1
loop_
 _symmetry_equiv_pos_site_id
 _symmetry_equiv_pos_as_xyz
  1  'x, y, z'
loop_
 _atom_site_type_symbol
 _atom_site_label
 _atom_site_symmetry_multiplicity
 _atom_site_fract_x
 _atom_site_fract_y
 _atom_site_fract_z
 _atom_site_occupancy
  Nd  Nd0  1  0.250000  0.750000  0.500000  1
  Nd  Nd1  1  0.750000  0.250000  0.500000  1
  Nd  Nd2  1  0.500000  0.500000  0.000000  1
  Cr  Cr3  1  0.000000  0.000000  0.000000  1
