# generated using pymatgen
data_KCaBr3
_symmetry_space_group_name_H-M   'P 1'
_cell_length_a   5.72159176
_cell_length_b   5.72159176
_cell_length_c   5.71630720
_cell_angle_alpha   89.89823525
_cell_angle_beta   90.10176475
_cell_angle_gamma   90.11342992
_symmetry_Int_Tables_number   1
_chemical_formula_structural   KCaBr3
_chemical_formula_sum   'K1 Ca1 Br3'
_cell_volume   187.13157680
_cell_formula_units_Z   1
loop_
 _symmetry_equiv_pos_site_id
 _symmetry_equiv_pos_as_xyz
  1  'x, y, z'
loop_
 _atom_site_type_symbol
 _atom_site_label
 _atom_site_symmetry_multiplicity
 _atom_site_fract_x
 _atom_site_fract_y
 _atom_site_fract_z
 _atom_site_occupancy
  K  K0  1  0.001451  0.998549  0.000082  1
  Ca  Ca1  1  0.504190  0.495810  0.483119  1
  Br  Br2  1  0.001252  0.496572  0.484841  1
  Br  Br3  1  0.491046  0.508954  0.983841  1
  Br  Br4  1  0.503428  0.998748  0.484841  1
