# generated using pymatgen
data_Sr4IrO6
_symmetry_space_group_name_H-M   'P 1'
_cell_length_a   6.94680758
_cell_length_b   6.94680758
_cell_length_c   6.94680758
_cell_angle_alpha   90.34956874
_cell_angle_beta   90.34956874
_cell_angle_gamma   90.34956874
_symmetry_Int_Tables_number   1
_chemical_formula_structural   Sr4IrO6
_chemical_formula_sum   'Sr8 Ir2 O12'
_cell_volume   335.22118724
_cell_formula_units_Z   2
loop_
 _symmetry_equiv_pos_site_id
 _symmetry_equiv_pos_as_xyz
  1  'x, y, z'
loop_
 _atom_site_type_symbol
 _atom_site_label
 _atom_site_symmetry_multiplicity
 _atom_site_fract_x
 _atom_site_fract_y
 _atom_site_fract_z
 _atom_site_occupancy
  Sr  Sr0  1  0.250000  0.250000  0.250000  1
  Sr  Sr1  1  0.750000  0.750000  0.750000  1
  Sr  Sr2  1  0.384214  0.750000  0.115786  1
  Sr  Sr3  1  0.115786  0.384214  0.750000  1
  Sr  Sr4  1  0.750000  0.115786  0.384214  1
  Sr  Sr5  1  0.615786  0.250000  0.884214  1
  Sr  Sr6  1  0.884214  0.615786  0.250000  1
  Sr  Sr7  1  0.250000  0.884214  0.615786  1
  Ir  Ir8  1  0.000000  0.000000  0.000000  1
  Ir  Ir9  1  0.500000  0.500000  0.500000  1
  O  O10  1  0.441892  0.572187  0.784580  1
  O  O11  1  0.784580  0.441892  0.572187  1
  O  O12  1  0.572187  0.784580  0.441892  1
  O  O13  1  0.715420  0.927813  0.058108  1
  O  O14  1  0.058108  0.715420  0.927813  1
  O  O15  1  0.927813  0.058108  0.715420  1
  O  O16  1  0.558108  0.427813  0.215420  1
  O  O17  1  0.215420  0.558108  0.427813  1
  O  O18  1  0.427813  0.215420  0.558108  1
  O  O19  1  0.284580  0.072187  0.941892  1
  O  O20  1  0.072187  0.941892  0.284580  1
  O  O21  1  0.941892  0.284580  0.072187  1
