# generated using pymatgen
data_NaCa9Mg(PO4)7
_symmetry_space_group_name_H-M   'P 1'
_cell_length_a   13.85165452
_cell_length_b   13.85165452
_cell_length_c   13.85165452
_cell_angle_alpha   44.28118610
_cell_angle_beta   44.28118610
_cell_angle_gamma   44.28118610
_symmetry_Int_Tables_number   1
_chemical_formula_structural   NaCa9Mg(PO4)7
_chemical_formula_sum   'Na2 Ca18 Mg2 P14 O56'
_cell_volume   1177.36296605
_cell_formula_units_Z   2
loop_
 _symmetry_equiv_pos_site_id
 _symmetry_equiv_pos_as_xyz
  1  'x, y, z'
loop_
 _atom_site_type_symbol
 _atom_site_label
 _atom_site_symmetry_multiplicity
 _atom_site_fract_x
 _atom_site_fract_y
 _atom_site_fract_z
 _atom_site_occupancy
  Na  Na0  1  0.813747  0.813747  0.813747  1
  Na  Na1  1  0.313747  0.313747  0.313747  1
  Ca  Ca2  1  0.443052  0.029795  0.053308  1
  Ca  Ca3  1  0.029795  0.053308  0.443052  1
  Ca  Ca4  1  0.053308  0.443052  0.029795  1
  Ca  Ca5  1  0.943052  0.553308  0.529795  1
  Ca  Ca6  1  0.553308  0.529795  0.943052  1
  Ca  Ca7  1  0.529795  0.943052  0.553308  1
  Ca  Ca8  1  0.093848  0.061711  0.652999  1
  Ca  Ca9  1  0.061711  0.652999  0.093848  1
  Ca  Ca10  1  0.652999  0.093848  0.061711  1
  Ca  Ca11  1  0.593848  0.152999  0.561711  1
  Ca  Ca12  1  0.152999  0.561711  0.593848  1
  Ca  Ca13  1  0.561711  0.593848  0.152999  1
  Ca  Ca14  1  0.925373  0.937821  0.340459  1
  Ca  Ca15  1  0.937821  0.340459  0.925373  1
  Ca  Ca16  1  0.340459  0.925373  0.937821  1
  Ca  Ca17  1  0.425373  0.840459  0.437821  1
  Ca  Ca18  1  0.840459  0.437821  0.425373  1
  Ca  Ca19  1  0.437821  0.425373  0.840459  1
  Mg  Mg20  1  0.999905  0.999905  0.999905  1
  Mg  Mg21  1  0.499905  0.499905  0.499905  1
  P  P22  1  0.313803  0.776053  0.818621  1
  P  P23  1  0.776053  0.818621  0.313803  1
  P  P24  1  0.228472  0.190978  0.677616  1
  P  P25  1  0.190978  0.677616  0.228472  1
  P  P26  1  0.677616  0.228472  0.190978  1
  P  P27  1  0.728472  0.177616  0.690978  1
  P  P28  1  0.177616  0.690978  0.728472  1
  P  P29  1  0.690978  0.728472  0.177616  1
  P  P30  1  0.234835  0.234835  0.234835  1
  P  P31  1  0.734835  0.734835  0.734835  1
  P  P32  1  0.818621  0.313803  0.776053  1
  P  P33  1  0.813803  0.318621  0.276053  1
  P  P34  1  0.276053  0.813803  0.318621  1
  P  P35  1  0.318621  0.276053  0.813803  1
  O  O36  1  0.328659  0.311290  0.889481  1
  O  O37  1  0.311290  0.889481  0.328659  1
  O  O38  1  0.889481  0.328659  0.311290  1
  O  O39  1  0.828659  0.389481  0.811290  1
  O  O40  1  0.389481  0.811290  0.828659  1
  O  O41  1  0.811290  0.828659  0.389481  1
  O  O42  1  0.386220  0.364828  0.637014  1
  O  O43  1  0.364828  0.637014  0.386220  1
  O  O44  1  0.637014  0.386220  0.364828  1
  O  O45  1  0.886220  0.137014  0.864828  1
  O  O46  1  0.137014  0.864828  0.886220  1
  O  O47  1  0.864828  0.886220  0.137014  1
  O  O48  1  0.148696  0.329293  0.871249  1
  O  O49  1  0.329293  0.871249  0.148696  1
  O  O50  1  0.871249  0.148696  0.329293  1
  O  O51  1  0.648696  0.371249  0.829293  1
  O  O52  1  0.371249  0.829293  0.648696  1
  O  O53  1  0.829293  0.648696  0.371249  1
  O  O54  1  0.414089  0.102860  0.854502  1
  O  O55  1  0.102860  0.854502  0.414089  1
  O  O56  1  0.854502  0.414089  0.102860  1
  O  O57  1  0.914089  0.354502  0.602860  1
  O  O58  1  0.152660  0.365115  0.622656  1
  O  O59  1  0.354502  0.602860  0.914089  1
  O  O60  1  0.129079  0.121486  0.853183  1
  O  O61  1  0.121486  0.853183  0.129079  1
  O  O62  1  0.853183  0.129079  0.121486  1
  O  O63  1  0.629079  0.353183  0.621486  1
  O  O64  1  0.353183  0.621486  0.629079  1
  O  O65  1  0.621486  0.629079  0.353183  1
  O  O66  1  0.390635  0.109832  0.665134  1
  O  O67  1  0.109832  0.665134  0.390635  1
  O  O68  1  0.665134  0.390635  0.109832  1
  O  O69  1  0.890635  0.165134  0.609832  1
  O  O70  1  0.165134  0.609832  0.890635  1
  O  O71  1  0.609832  0.890635  0.165134  1
  O  O72  1  0.693496  0.693496  0.693496  1
  O  O73  1  0.193496  0.193496  0.193496  1
  O  O74  1  0.890539  0.609048  0.746559  1
  O  O75  1  0.746559  0.890539  0.609048  1
  O  O76  1  0.609048  0.746559  0.890539  1
  O  O77  1  0.246559  0.109048  0.390539  1
  O  O78  1  0.390539  0.246559  0.109048  1
  O  O79  1  0.109048  0.390539  0.246559  1
  O  O80  1  0.650470  0.747275  0.083954  1
  O  O81  1  0.083954  0.650470  0.747275  1
  O  O82  1  0.747275  0.083954  0.650470  1
  O  O83  1  0.583954  0.247275  0.150470  1
  O  O84  1  0.150470  0.583954  0.247275  1
  O  O85  1  0.247275  0.150470  0.583954  1
  O  O86  1  0.865115  0.652660  0.122656  1
  O  O87  1  0.122656  0.865115  0.652660  1
  O  O88  1  0.652660  0.122656  0.865115  1
  O  O89  1  0.622656  0.152660  0.365115  1
  O  O90  1  0.365115  0.622656  0.152660  1
  O  O91  1  0.602860  0.914089  0.354502  1
