# generated using pymatgen
data_PrNiGe2
_symmetry_space_group_name_H-M   'P 1'
_cell_length_a   8.63789009
_cell_length_b   8.63789009
_cell_length_c   4.24647259
_cell_angle_alpha   90.00000000
_cell_angle_beta   90.00000000
_cell_angle_gamma   151.42474391
_symmetry_Int_Tables_number   1
_chemical_formula_structural   PrNiGe2
_chemical_formula_sum   'Pr2 Ni2 Ge4'
_cell_volume   151.54985850
_cell_formula_units_Z   2
loop_
 _symmetry_equiv_pos_site_id
 _symmetry_equiv_pos_as_xyz
  1  'x, y, z'
loop_
 _atom_site_type_symbol
 _atom_site_label
 _atom_site_symmetry_multiplicity
 _atom_site_fract_x
 _atom_site_fract_y
 _atom_site_fract_z
 _atom_site_occupancy
  Pr  Pr0  1  0.891530  0.108470  0.750000  1
  Pr  Pr1  1  0.108470  0.891530  0.250000  1
  Ni  Ni2  1  0.681554  0.318446  0.750000  1
  Ni  Ni3  1  0.318446  0.681554  0.250000  1
  Ge  Ge4  1  0.542445  0.457555  0.750000  1
  Ge  Ge5  1  0.457555  0.542445  0.250000  1
  Ge  Ge6  1  0.250553  0.749447  0.750000  1
  Ge  Ge7  1  0.749447  0.250553  0.250000  1
