# generated using pymatgen
data_HgH6I3NO
_symmetry_space_group_name_H-M   'P 1'
_cell_length_a   7.38594620
_cell_length_b   7.38594620
_cell_length_c   9.04679005
_cell_angle_alpha   88.57508369
_cell_angle_beta   91.42491631
_cell_angle_gamma   98.56155677
_symmetry_Int_Tables_number   1
_chemical_formula_structural   HgH6I3NO
_chemical_formula_sum   'Hg2 H12 I6 N2 O2'
_cell_volume   487.75999854
_cell_formula_units_Z   2
loop_
 _symmetry_equiv_pos_site_id
 _symmetry_equiv_pos_as_xyz
  1  'x, y, z'
loop_
 _atom_site_type_symbol
 _atom_site_label
 _atom_site_symmetry_multiplicity
 _atom_site_fract_x
 _atom_site_fract_y
 _atom_site_fract_z
 _atom_site_occupancy
  Hg  Hg0  1  0.550376  0.386400  0.895502  1
  Hg  Hg1  1  0.613600  0.449624  0.395502  1
  H  H2  1  0.772846  0.962349  0.829119  1
  H  H3  1  0.835440  0.780252  0.750144  1
  H  H4  1  0.660220  0.875333  0.675473  1
  H  H5  1  0.880326  0.988627  0.661176  1
  H  H6  1  0.159922  0.140258  0.614375  1
  H  H7  1  0.095248  0.978959  0.508275  1
  H  H8  1  0.037651  0.227154  0.329119  1
  H  H9  1  0.219748  0.164560  0.250144  1
  H  H10  1  0.124667  0.339780  0.175473  1
  H  H11  1  0.011373  0.119674  0.161176  1
  H  H12  1  0.859742  0.840078  0.114375  1
  H  H13  1  0.021041  0.904752  0.008275  1
  I  I14  1  0.347691  0.033911  0.872253  1
  I  I15  1  0.931086  0.460579  0.863709  1
  I  I16  1  0.393707  0.564909  0.626392  1
  I  I17  1  0.966089  0.652309  0.372253  1
  I  I18  1  0.539421  0.068914  0.363709  1
  I  I19  1  0.435091  0.606293  0.126392  1
  N  N20  1  0.786670  0.903714  0.728563  1
  N  N21  1  0.096286  0.213330  0.228563  1
  O  O22  1  0.059069  0.092118  0.546720  1
  O  O23  1  0.907882  0.940931  0.046720  1
