# generated using pymatgen
data_LaWN3
_symmetry_space_group_name_H-M   'P 1'
_cell_length_a   5.65469326
_cell_length_b   5.69262783
_cell_length_c   8.00222049
_cell_angle_alpha   90.00000000
_cell_angle_beta   90.00000000
_cell_angle_gamma   90.00000000
_symmetry_Int_Tables_number   1
_chemical_formula_structural   LaWN3
_chemical_formula_sum   'La4 W4 N12'
_cell_volume   257.59199149
_cell_formula_units_Z   4
loop_
 _symmetry_equiv_pos_site_id
 _symmetry_equiv_pos_as_xyz
  1  'x, y, z'
loop_
 _atom_site_type_symbol
 _atom_site_label
 _atom_site_symmetry_multiplicity
 _atom_site_fract_x
 _atom_site_fract_y
 _atom_site_fract_z
 _atom_site_occupancy
  La  La0  1  0.982324  0.002005  0.750000  1
  La  La1  1  0.017676  0.997995  0.250000  1
  La  La2  1  0.482324  0.497995  0.750000  1
  La  La3  1  0.517676  0.502005  0.250000  1
  W  W4  1  0.500000  0.000000  0.500000  1
  W  W5  1  0.000000  0.500000  0.000000  1
  W  W6  1  0.000000  0.500000  0.500000  1
  W  W7  1  0.500000  0.000000  0.000000  1
  N  N8  1  0.272643  0.729266  0.469521  1
  N  N9  1  0.227357  0.229266  0.969521  1
  N  N10  1  0.227357  0.229266  0.530479  1
  N  N11  1  0.272643  0.729266  0.030479  1
  N  N12  1  0.772643  0.770734  0.469521  1
  N  N13  1  0.727357  0.270734  0.969521  1
  N  N14  1  0.994895  0.441339  0.250000  1
  N  N15  1  0.005105  0.558661  0.750000  1
  N  N16  1  0.505105  0.941339  0.750000  1
  N  N17  1  0.727357  0.270734  0.530479  1
  N  N18  1  0.772643  0.770734  0.030479  1
  N  N19  1  0.494895  0.058661  0.250000  1
