# generated using pymatgen
data_RbCaBr3
_symmetry_space_group_name_H-M   'P 1'
_cell_length_a   4.41952100
_cell_length_b   9.84674800
_cell_length_c   16.38402500
_cell_angle_alpha   90.00000000
_cell_angle_beta   90.00000000
_cell_angle_gamma   90.00000000
_symmetry_Int_Tables_number   1
_chemical_formula_structural   RbCaBr3
_chemical_formula_sum   'Rb4 Ca4 Br12'
_cell_volume   712.99851831
_cell_formula_units_Z   4
loop_
 _symmetry_equiv_pos_site_id
 _symmetry_equiv_pos_as_xyz
  1  'x, y, z'
loop_
 _atom_site_type_symbol
 _atom_site_label
 _atom_site_symmetry_multiplicity
 _atom_site_fract_x
 _atom_site_fract_y
 _atom_site_fract_z
 _atom_site_occupancy
  Rb  Rb0  1  0.250000  0.069749  0.821277  1
  Rb  Rb1  1  0.750000  0.930251  0.178723  1
  Rb  Rb2  1  0.250000  0.569749  0.678723  1
  Rb  Rb3  1  0.750000  0.430251  0.321277  1
  Ca  Ca4  1  0.750000  0.169124  0.555331  1
  Ca  Ca5  1  0.250000  0.830876  0.444669  1
  Ca  Ca6  1  0.750000  0.669124  0.944669  1
  Ca  Ca7  1  0.250000  0.330876  0.055331  1
  Br  Br8  1  0.250000  0.332499  0.491207  1
  Br  Br9  1  0.750000  0.667501  0.508792  1
  Br  Br10  1  0.250000  0.832499  0.008793  1
  Br  Br11  1  0.750000  0.167501  0.991208  1
  Br  Br12  1  0.750000  0.018181  0.398857  1
  Br  Br13  1  0.250000  0.981819  0.601143  1
  Br  Br14  1  0.750000  0.518181  0.101143  1
  Br  Br15  1  0.250000  0.481819  0.898857  1
  Br  Br16  1  0.750000  0.290407  0.711499  1
  Br  Br17  1  0.250000  0.709593  0.288501  1
  Br  Br18  1  0.750000  0.790407  0.788501  1
  Br  Br19  1  0.250000  0.209593  0.211499  1
