# generated using pymatgen
data_CuClO2
_symmetry_space_group_name_H-M   'P 1'
_cell_length_a   6.91060316
_cell_length_b   6.91060316
_cell_length_c   3.55841384
_cell_angle_alpha   89.33678039
_cell_angle_beta   90.66321961
_cell_angle_gamma   118.61817621
_symmetry_Int_Tables_number   1
_chemical_formula_structural   CuClO2
_chemical_formula_sum   'Cu2 Cl2 O4'
_cell_volume   149.16260742
_cell_formula_units_Z   2
loop_
 _symmetry_equiv_pos_site_id
 _symmetry_equiv_pos_as_xyz
  1  'x, y, z'
loop_
 _atom_site_type_symbol
 _atom_site_label
 _atom_site_symmetry_multiplicity
 _atom_site_fract_x
 _atom_site_fract_y
 _atom_site_fract_z
 _atom_site_occupancy
  Cu  Cu0  1  0.343908  0.666057  0.242190  1
  Cu  Cu1  1  0.666057  0.343908  0.757810  1
  Cl  Cl2  1  0.220937  0.785717  0.737118  1
  Cl  Cl3  1  0.785717  0.220937  0.262882  1
  O  O4  1  0.693061  0.585570  0.050957  1
  O  O5  1  0.323689  0.425275  0.549979  1
  O  O6  1  0.425275  0.323689  0.450021  1
  O  O7  1  0.585570  0.693061  0.949043  1
