# generated using pymatgen
data_PPb3
_symmetry_space_group_name_H-M   'P 1'
_cell_length_a   6.69937560
_cell_length_b   6.69937560
_cell_length_c   5.74234284
_cell_angle_alpha   90.00000000
_cell_angle_beta   90.00000000
_cell_angle_gamma   120.00000000
_symmetry_Int_Tables_number   1
_chemical_formula_structural   PPb3
_chemical_formula_sum   'P2 Pb6'
_cell_volume   223.19702619
_cell_formula_units_Z   2
loop_
 _symmetry_equiv_pos_site_id
 _symmetry_equiv_pos_as_xyz
  1  'x, y, z'
loop_
 _atom_site_type_symbol
 _atom_site_label
 _atom_site_symmetry_multiplicity
 _atom_site_fract_x
 _atom_site_fract_y
 _atom_site_fract_z
 _atom_site_occupancy
  P  P0  1  0.666667  0.333333  0.250000  1
  P  P1  1  0.333333  0.666667  0.750000  1
  Pb  Pb2  1  0.828733  0.171267  0.750000  1
  Pb  Pb3  1  0.342534  0.171267  0.750000  1
  Pb  Pb4  1  0.828733  0.657466  0.750000  1
  Pb  Pb5  1  0.171267  0.828733  0.250000  1
  Pb  Pb6  1  0.657466  0.828733  0.250000  1
  Pb  Pb7  1  0.171267  0.342534  0.250000  1
