# generated using pymatgen
data_Ho3Zr
_symmetry_space_group_name_H-M   'P 1'
_cell_length_a   5.94390873
_cell_length_b   5.94390873
_cell_length_c   5.94390873
_cell_angle_alpha   131.71160895
_cell_angle_beta   131.71160895
_cell_angle_gamma   70.68489233
_symmetry_Int_Tables_number   1
_chemical_formula_structural   Ho3Zr
_chemical_formula_sum   'Ho3 Zr1'
_cell_volume   114.63878754
_cell_formula_units_Z   1
loop_
 _symmetry_equiv_pos_site_id
 _symmetry_equiv_pos_as_xyz
  1  'x, y, z'
loop_
 _atom_site_type_symbol
 _atom_site_label
 _atom_site_symmetry_multiplicity
 _atom_site_fract_x
 _atom_site_fract_y
 _atom_site_fract_z
 _atom_site_occupancy
  Ho  Ho0  1  0.250000  0.750000  0.500000  1
  Ho  Ho1  1  0.750000  0.250000  0.500000  1
  Ho  Ho2  1  0.500000  0.500000  0.000000  1
  Zr  Zr3  1  0.000000  0.000000  0.000000  1
