# generated using pymatgen
data_CsGdS2
_symmetry_space_group_name_H-M   'P 1'
_cell_length_a   8.40798778
_cell_length_b   8.40798778
_cell_length_c   8.40798778
_cell_angle_alpha   28.65174517
_cell_angle_beta   28.65174517
_cell_angle_gamma   28.65174517
_symmetry_Int_Tables_number   1
_chemical_formula_structural   CsGdS2
_chemical_formula_sum   'Cs1 Gd1 S2'
_cell_volume   120.80994150
_cell_formula_units_Z   1
loop_
 _symmetry_equiv_pos_site_id
 _symmetry_equiv_pos_as_xyz
  1  'x, y, z'
loop_
 _atom_site_type_symbol
 _atom_site_label
 _atom_site_symmetry_multiplicity
 _atom_site_fract_x
 _atom_site_fract_y
 _atom_site_fract_z
 _atom_site_occupancy
  Cs  Cs0  1  0.000000  0.000000  0.000000  1
  Gd  Gd1  1  0.500000  0.500000  0.500000  1
  S  S2  1  0.227432  0.227432  0.227432  1
  S  S3  1  0.772568  0.772568  0.772568  1
