# generated using pymatgen
data_TlCdF3
_symmetry_space_group_name_H-M   'P 1'
_cell_length_a   6.30839297
_cell_length_b   8.87790383
_cell_length_c   12.76673285
_cell_angle_alpha   90.00000000
_cell_angle_beta   90.00000000
_cell_angle_gamma   90.00000000
_symmetry_Int_Tables_number   1
_chemical_formula_structural   TlCdF3
_chemical_formula_sum   'Tl8 Cd8 F24'
_cell_volume   715.00478128
_cell_formula_units_Z   8
loop_
 _symmetry_equiv_pos_site_id
 _symmetry_equiv_pos_as_xyz
  1  'x, y, z'
loop_
 _atom_site_type_symbol
 _atom_site_label
 _atom_site_symmetry_multiplicity
 _atom_site_fract_x
 _atom_site_fract_y
 _atom_site_fract_z
 _atom_site_occupancy
  Tl  Tl0  1  0.254262  0.000000  0.878880  1
  Tl  Tl1  1  0.754262  0.000000  0.621120  1
  Tl  Tl2  1  0.745738  0.000000  0.121120  1
  Tl  Tl3  1  0.245738  0.000000  0.378880  1
  Tl  Tl4  1  0.251732  0.500000  0.872039  1
  Tl  Tl5  1  0.751732  0.500000  0.627961  1
  Tl  Tl6  1  0.748268  0.500000  0.127961  1
  Tl  Tl7  1  0.248268  0.500000  0.372039  1
  Cd  Cd8  1  0.745277  0.250328  0.874976  1
  Cd  Cd9  1  0.245277  0.749672  0.625024  1
  Cd  Cd10  1  0.254723  0.250328  0.125024  1
  Cd  Cd11  1  0.754723  0.749672  0.374976  1
  Cd  Cd12  1  0.254723  0.749672  0.125024  1
  Cd  Cd13  1  0.754723  0.250328  0.374976  1
  Cd  Cd14  1  0.745277  0.749672  0.874976  1
  Cd  Cd15  1  0.245277  0.250328  0.625024  1
  F  F16  1  0.738939  0.000000  0.840887  1
  F  F17  1  0.238939  0.000000  0.659113  1
  F  F18  1  0.261061  0.000000  0.159113  1
  F  F19  1  0.761061  0.000000  0.340887  1
  F  F20  1  0.717929  0.500000  0.907677  1
  F  F21  1  0.217929  0.500000  0.592323  1
  F  F22  1  0.282071  0.500000  0.092323  1
  F  F23  1  0.782071  0.500000  0.407677  1
  F  F24  1  0.979093  0.287983  0.744528  1
  F  F25  1  0.479093  0.712017  0.755472  1
  F  F26  1  0.020907  0.287983  0.255472  1
  F  F27  1  0.520907  0.712017  0.244528  1
  F  F28  1  0.020907  0.712017  0.255472  1
  F  F29  1  0.520907  0.287983  0.244528  1
  F  F30  1  0.979093  0.712017  0.744528  1
  F  F31  1  0.479093  0.287983  0.755472  1
  F  F32  1  0.000000  0.204549  0.500000  1
  F  F33  1  0.500000  0.795451  0.000000  1
  F  F34  1  0.000000  0.795451  0.500000  1
  F  F35  1  0.500000  0.204549  0.000000  1
  F  F36  1  0.000000  0.218964  0.000000  1
  F  F37  1  0.500000  0.781036  0.500000  1
  F  F38  1  0.000000  0.781036  0.000000  1
  F  F39  1  0.500000  0.218964  0.500000  1
