# generated using pymatgen
data_Ho11Ge10
_symmetry_space_group_name_H-M   'P 1'
_cell_length_a   11.26305708
_cell_length_b   11.26305708
_cell_length_c   11.26305708
_cell_angle_alpha   122.06568669
_cell_angle_beta   122.06568669
_cell_angle_gamma   86.45787800
_symmetry_Int_Tables_number   1
_chemical_formula_structural   Ho11Ge10
_chemical_formula_sum   'Ho22 Ge20'
_cell_volume   976.73154602
_cell_formula_units_Z   2
loop_
 _symmetry_equiv_pos_site_id
 _symmetry_equiv_pos_as_xyz
  1  'x, y, z'
loop_
 _atom_site_type_symbol
 _atom_site_label
 _atom_site_symmetry_multiplicity
 _atom_site_fract_x
 _atom_site_fract_y
 _atom_site_fract_z
 _atom_site_occupancy
  Ho  Ho0  1  0.190180  0.938005  0.747824  1
  Ho  Ho1  1  0.190180  0.442356  0.252176  1
  Ho  Ho2  1  0.442356  0.190180  0.252176  1
  Ho  Ho3  1  0.938005  0.190180  0.747824  1
  Ho  Ho4  1  0.809820  0.061995  0.252176  1
  Ho  Ho5  1  0.809820  0.557644  0.747824  1
  Ho  Ho6  1  0.557644  0.809820  0.747824  1
  Ho  Ho7  1  0.061995  0.809820  0.252176  1
  Ho  Ho8  1  0.177548  0.822452  0.000000  1
  Ho  Ho9  1  0.822452  0.177548  0.000000  1
  Ho  Ho10  1  0.177548  0.177548  0.355095  1
  Ho  Ho11  1  0.822452  0.822452  0.644905  1
  Ho  Ho12  1  0.339991  0.339991  0.000000  1
  Ho  Ho13  1  0.660009  0.660009  0.000000  1
  Ho  Ho14  1  0.397427  0.073376  0.675949  1
  Ho  Ho15  1  0.397427  0.721478  0.324051  1
  Ho  Ho16  1  0.721478  0.397427  0.324051  1
  Ho  Ho17  1  0.073376  0.397427  0.675949  1
  Ho  Ho18  1  0.602573  0.926624  0.324051  1
  Ho  Ho19  1  0.602573  0.278522  0.675949  1
  Ho  Ho20  1  0.278522  0.602573  0.675949  1
  Ho  Ho21  1  0.926624  0.602573  0.324051  1
  Ge  Ge22  1  0.360577  0.000000  0.360577  1
  Ge  Ge23  1  0.639423  0.000000  0.639423  1
  Ge  Ge24  1  1.000000  0.360577  0.360577  1
  Ge  Ge25  1  1.000000  0.639423  0.639423  1
  Ge  Ge26  1  0.112939  0.112939  0.000000  1
  Ge  Ge27  1  0.887061  0.887061  0.000000  1
  Ge  Ge28  1  0.379962  0.620038  0.000000  1
  Ge  Ge29  1  0.620038  0.379962  0.000000  1
  Ge  Ge30  1  0.379962  0.379962  0.759924  1
  Ge  Ge31  1  0.620038  0.620038  0.240076  1
  Ge  Ge32  1  0.250000  0.750000  0.500000  1
  Ge  Ge33  1  0.750000  0.250000  0.500000  1
  Ge  Ge34  1  0.528668  0.108989  1.000000  1
  Ge  Ge35  1  0.108989  0.528668  0.000000  1
  Ge  Ge36  1  0.528668  0.528668  0.419679  1
  Ge  Ge37  1  0.108989  0.108989  0.580321  1
  Ge  Ge38  1  0.471332  0.891011  0.000000  1
  Ge  Ge39  1  0.891011  0.471332  0.000000  1
  Ge  Ge40  1  0.471332  0.471332  0.580321  1
  Ge  Ge41  1  0.891011  0.891011  0.419679  1
