# generated using pymatgen
data_FeSbAs
_symmetry_space_group_name_H-M   'P 1'
_cell_length_a   3.05096321
_cell_length_b   5.56334236
_cell_length_c   6.26730598
_cell_angle_alpha   90.00000000
_cell_angle_beta   90.00000000
_cell_angle_gamma   90.00000000
_symmetry_Int_Tables_number   1
_chemical_formula_structural   FeSbAs
_chemical_formula_sum   'Fe2 Sb2 As2'
_cell_volume   106.37844937
_cell_formula_units_Z   2
loop_
 _symmetry_equiv_pos_site_id
 _symmetry_equiv_pos_as_xyz
  1  'x, y, z'
loop_
 _atom_site_type_symbol
 _atom_site_label
 _atom_site_symmetry_multiplicity
 _atom_site_fract_x
 _atom_site_fract_y
 _atom_site_fract_z
 _atom_site_occupancy
  Fe  Fe0  1  0.000000  0.273379  0.692050  1
  Fe  Fe1  1  0.500000  0.726621  0.192050  1
  Sb  Sb2  1  0.000000  0.070661  0.057408  1
  Sb  Sb3  1  0.500000  0.929339  0.557408  1
  As  As4  1  0.000000  0.441831  0.342942  1
  As  As5  1  0.500000  0.558169  0.842942  1
