# generated using pymatgen
data_La(ErS2)3
_symmetry_space_group_name_H-M   'P 1'
_cell_length_a   11.07134481
_cell_length_b   3.99774159
_cell_length_c   11.32970611
_cell_angle_alpha   90.00000000
_cell_angle_beta   108.77344542
_cell_angle_gamma   90.00000000
_symmetry_Int_Tables_number   1
_chemical_formula_structural   La(ErS2)3
_chemical_formula_sum   'La2 Er6 S12'
_cell_volume   474.77878941
_cell_formula_units_Z   2
loop_
 _symmetry_equiv_pos_site_id
 _symmetry_equiv_pos_as_xyz
  1  'x, y, z'
loop_
 _atom_site_type_symbol
 _atom_site_label
 _atom_site_symmetry_multiplicity
 _atom_site_fract_x
 _atom_site_fract_y
 _atom_site_fract_z
 _atom_site_occupancy
  La  La0  1  0.549429  0.750000  0.694836  1
  La  La1  1  0.450571  0.250000  0.305164  1
  Er  Er2  1  0.822243  0.250000  0.499761  1
  Er  Er3  1  0.943007  0.750000  0.833786  1
  Er  Er4  1  0.056993  0.250000  0.166214  1
  Er  Er5  1  0.660888  0.750000  0.087852  1
  Er  Er6  1  0.339112  0.250000  0.912148  1
  Er  Er7  1  0.177757  0.750000  0.500239  1
  S  S8  1  0.893984  0.750000  0.058192  1
  S  S9  1  0.106016  0.250000  0.941808  1
  S  S10  1  0.301090  0.750000  0.751098  1
  S  S11  1  0.698910  0.250000  0.248902  1
  S  S12  1  0.979313  0.750000  0.612282  1
  S  S13  1  0.020687  0.250000  0.387718  1
  S  S14  1  0.622320  0.750000  0.463600  1
  S  S15  1  0.377680  0.250000  0.536400  1
  S  S16  1  0.231686  0.750000  0.270096  1
  S  S17  1  0.768314  0.250000  0.729904  1
  S  S18  1  0.417687  0.750000  0.092256  1
  S  S19  1  0.582313  0.250000  0.907744  1
