# generated using pymatgen
data_Th7Te12
_symmetry_space_group_name_H-M   'P 1'
_cell_length_a   12.58297970
_cell_length_b   12.58297970
_cell_length_c   4.35503106
_cell_angle_alpha   90.00000000
_cell_angle_beta   90.00000000
_cell_angle_gamma   120.00000000
_symmetry_Int_Tables_number   1
_chemical_formula_structural   Th7Te12
_chemical_formula_sum   'Th7 Te12'
_cell_volume   597.15748502
_cell_formula_units_Z   1
loop_
 _symmetry_equiv_pos_site_id
 _symmetry_equiv_pos_as_xyz
  1  'x, y, z'
loop_
 _atom_site_type_symbol
 _atom_site_label
 _atom_site_symmetry_multiplicity
 _atom_site_fract_x
 _atom_site_fract_y
 _atom_site_fract_z
 _atom_site_occupancy
  Th  Th0  1  0.388993  0.493820  0.000000  1
  Th  Th1  1  0.506180  0.895173  0.000000  1
  Th  Th2  1  0.104827  0.611007  0.000000  1
  Th  Th3  1  0.215130  0.044852  0.500000  1
  Th  Th4  1  0.955148  0.170278  0.500000  1
  Th  Th5  1  0.829722  0.784870  0.500000  1
  Th  Th6  1  0.666667  0.333333  0.000000  1
  Te  Te7  1  0.411794  0.086117  0.000000  1
  Te  Te8  1  0.913883  0.325678  0.000000  1
  Te  Te9  1  0.674322  0.588206  0.000000  1
  Te  Te10  1  0.158341  0.199909  0.000000  1
  Te  Te11  1  0.800091  0.958432  0.000000  1
  Te  Te12  1  0.041568  0.841659  0.000000  1
  Te  Te13  1  0.530203  0.718774  0.500000  1
  Te  Te14  1  0.883613  0.546876  0.500000  1
  Te  Te15  1  0.663262  0.116387  0.500000  1
  Te  Te16  1  0.453124  0.336738  0.500000  1
  Te  Te17  1  0.188570  0.469797  0.500000  1
  Te  Te18  1  0.281226  0.811430  0.500000  1
