# generated using pymatgen
data_AgAuO2
_symmetry_space_group_name_H-M   'P 1'
_cell_length_a   6.40462620
_cell_length_b   6.40462620
_cell_length_c   6.40462620
_cell_angle_alpha   136.01088584
_cell_angle_beta   136.01088584
_cell_angle_gamma   63.96350600
_symmetry_Int_Tables_number   1
_chemical_formula_structural   AgAuO2
_chemical_formula_sum   'Ag2 Au2 O4'
_cell_volume   125.02440960
_cell_formula_units_Z   2
loop_
 _symmetry_equiv_pos_site_id
 _symmetry_equiv_pos_as_xyz
  1  'x, y, z'
loop_
 _atom_site_type_symbol
 _atom_site_label
 _atom_site_symmetry_multiplicity
 _atom_site_fract_x
 _atom_site_fract_y
 _atom_site_fract_z
 _atom_site_occupancy
  Ag  Ag0  1  0.750000  0.250000  0.500000  1
  Ag  Ag1  1  0.000000  0.000000  0.000000  1
  Au  Au2  1  0.250000  0.750000  0.500000  1
  Au  Au3  1  0.500000  0.500000  0.000000  1
  O  O4  1  0.155129  0.125000  0.530129  1
  O  O5  1  0.875000  0.844871  0.469871  1
  O  O6  1  0.375000  0.405129  0.530129  1
  O  O7  1  0.594871  0.625000  0.469871  1
