# generated using pymatgen
data_NaZnAs(H2O3)2
_symmetry_space_group_name_H-M   'P 1'
_cell_length_a   5.75402096
_cell_length_b   6.21789689
_cell_length_c   7.95419943
_cell_angle_alpha   92.12646795
_cell_angle_beta   91.44311369
_cell_angle_gamma   91.38497475
_symmetry_Int_Tables_number   1
_chemical_formula_structural   NaZnAs(H2O3)2
_chemical_formula_sum   'Na2 Zn2 As2 H8 O12'
_cell_volume   284.20866314
_cell_formula_units_Z   2
loop_
 _symmetry_equiv_pos_site_id
 _symmetry_equiv_pos_as_xyz
  1  'x, y, z'
loop_
 _atom_site_type_symbol
 _atom_site_label
 _atom_site_symmetry_multiplicity
 _atom_site_fract_x
 _atom_site_fract_y
 _atom_site_fract_z
 _atom_site_occupancy
  Na  Na0  1  0.500000  0.500000  0.000000  1
  Na  Na1  1  0.000000  0.000000  0.000000  1
  Zn  Zn2  1  0.313493  0.253524  0.388062  1
  Zn  Zn3  1  0.686507  0.746476  0.611938  1
  As  As4  1  0.187380  0.748609  0.382125  1
  As  As5  1  0.812620  0.251391  0.617875  1
  H  H6  1  0.131545  0.610968  0.026139  1
  H  H7  1  0.540585  0.905146  0.149263  1
  H  H8  1  0.937634  0.396965  0.167384  1
  H  H9  1  0.750421  0.794553  0.231207  1
  H  H10  1  0.249579  0.205447  0.768793  1
  H  H11  1  0.062366  0.603035  0.832616  1
  H  H12  1  0.459415  0.094854  0.850737  1
  H  H13  1  0.868455  0.389032  0.973861  1
  O  O14  1  0.833001  0.324522  0.081464  1
  O  O15  1  0.675913  0.819429  0.118428  1
  O  O16  1  0.225325  0.515110  0.254386  1
  O  O17  1  0.258342  0.967684  0.261556  1
  O  O18  1  0.893984  0.757468  0.417474  1
  O  O19  1  0.648285  0.263741  0.438492  1
  O  O20  1  0.351715  0.736259  0.561508  1
  O  O21  1  0.106016  0.242532  0.582526  1
  O  O22  1  0.741658  0.032316  0.738444  1
  O  O23  1  0.774675  0.484890  0.745614  1
  O  O24  1  0.324087  0.180571  0.881572  1
  O  O25  1  0.166999  0.675478  0.918536  1
