# generated using pymatgen
data_PrLu3
_symmetry_space_group_name_H-M   'P 1'
_cell_length_a   7.16205782
_cell_length_b   7.16205782
_cell_length_c   5.62593775
_cell_angle_alpha   90.00000000
_cell_angle_beta   90.00000000
_cell_angle_gamma   120.00000000
_symmetry_Int_Tables_number   1
_chemical_formula_structural   PrLu3
_chemical_formula_sum   'Pr2 Lu6'
_cell_volume   249.92010822
_cell_formula_units_Z   2
loop_
 _symmetry_equiv_pos_site_id
 _symmetry_equiv_pos_as_xyz
  1  'x, y, z'
loop_
 _atom_site_type_symbol
 _atom_site_label
 _atom_site_symmetry_multiplicity
 _atom_site_fract_x
 _atom_site_fract_y
 _atom_site_fract_z
 _atom_site_occupancy
  Pr  Pr0  1  0.333333  0.666667  0.750000  1
  Pr  Pr1  1  0.666667  0.333333  0.250000  1
  Lu  Lu2  1  0.163917  0.327834  0.250000  1
  Lu  Lu3  1  0.672166  0.836083  0.250000  1
  Lu  Lu4  1  0.163917  0.836083  0.250000  1
  Lu  Lu5  1  0.836083  0.672166  0.750000  1
  Lu  Lu6  1  0.327834  0.163917  0.750000  1
  Lu  Lu7  1  0.836083  0.163917  0.750000  1
