# generated using pymatgen
data_Li2Mg
_symmetry_space_group_name_H-M   'P 1'
_cell_length_a   3.09343293
_cell_length_b   3.09343293
_cell_length_c   15.03508590
_cell_angle_alpha   90.00000000
_cell_angle_beta   90.00000000
_cell_angle_gamma   120.00000000
_symmetry_Int_Tables_number   1
_chemical_formula_structural   Li2Mg
_chemical_formula_sum   'Li4 Mg2'
_cell_volume   124.59997472
_cell_formula_units_Z   2
loop_
 _symmetry_equiv_pos_site_id
 _symmetry_equiv_pos_as_xyz
  1  'x, y, z'
loop_
 _atom_site_type_symbol
 _atom_site_label
 _atom_site_symmetry_multiplicity
 _atom_site_fract_x
 _atom_site_fract_y
 _atom_site_fract_z
 _atom_site_occupancy
  Li  Li0  1  0.666667  0.333333  0.581874  1
  Li  Li1  1  0.666667  0.333333  0.918126  1
  Li  Li2  1  0.333333  0.666667  0.081874  1
  Li  Li3  1  0.333333  0.666667  0.418126  1
  Mg  Mg4  1  0.333333  0.666667  0.750000  1
  Mg  Mg5  1  0.666667  0.333333  0.250000  1
