# generated using pymatgen
data_Pb3I2(Cl2O3)2
_symmetry_space_group_name_H-M   'P 1'
_cell_length_a   8.71964766
_cell_length_b   8.71964766
_cell_length_c   12.19578953
_cell_angle_alpha   64.84131338
_cell_angle_beta   115.15868662
_cell_angle_gamma   128.76115581
_symmetry_Int_Tables_number   1
_chemical_formula_structural   Pb3I2(Cl2O3)2
_chemical_formula_sum   'Pb6 I4 Cl8 O12'
_cell_volume   637.64379358
_cell_formula_units_Z   2
loop_
 _symmetry_equiv_pos_site_id
 _symmetry_equiv_pos_as_xyz
  1  'x, y, z'
loop_
 _atom_site_type_symbol
 _atom_site_label
 _atom_site_symmetry_multiplicity
 _atom_site_fract_x
 _atom_site_fract_y
 _atom_site_fract_z
 _atom_site_occupancy
  Pb  Pb0  1  0.167963  0.167963  0.250000  1
  Pb  Pb1  1  0.832037  0.832037  0.750000  1
  Pb  Pb2  1  0.055663  0.656979  0.175264  1
  Pb  Pb3  1  0.656979  0.055663  0.324736  1
  Pb  Pb4  1  0.944337  0.343021  0.824736  1
  Pb  Pb5  1  0.343021  0.944337  0.675264  1
  I  I6  1  0.664732  0.767166  0.027068  1
  I  I7  1  0.767166  0.664732  0.472932  1
  I  I8  1  0.335268  0.232834  0.972932  1
  I  I9  1  0.232834  0.335268  0.527068  1
  Cl  Cl10  1  0.674164  0.424511  0.270782  1
  Cl  Cl11  1  0.424511  0.674164  0.229218  1
  Cl  Cl12  1  0.325836  0.575489  0.729218  1
  Cl  Cl13  1  0.575489  0.325836  0.770782  1
  Cl  Cl14  1  0.257789  0.849987  0.389923  1
  Cl  Cl15  1  0.849987  0.257789  0.110077  1
  Cl  Cl16  1  0.742211  0.150013  0.610077  1
  Cl  Cl17  1  0.150013  0.742211  0.889923  1
  O  O18  1  0.918567  0.907960  0.121496  1
  O  O19  1  0.907960  0.918567  0.378504  1
  O  O20  1  0.081433  0.092040  0.878504  1
  O  O21  1  0.092040  0.081433  0.621496  1
  O  O22  1  0.333408  0.038017  0.115742  1
  O  O23  1  0.038017  0.333408  0.384258  1
  O  O24  1  0.666592  0.961983  0.884258  1
  O  O25  1  0.961983  0.666592  0.615742  1
  O  O26  1  0.276991  0.360355  0.023522  1
  O  O27  1  0.360355  0.276991  0.476478  1
  O  O28  1  0.723009  0.639645  0.976478  1
  O  O29  1  0.639645  0.723009  0.523522  1
