# generated using pymatgen
data_SmMg3
_symmetry_space_group_name_H-M   'P 1'
_cell_length_a   6.77124834
_cell_length_b   6.77124834
_cell_length_c   5.20310800
_cell_angle_alpha   90.00000000
_cell_angle_beta   90.00000000
_cell_angle_gamma   120.00000000
_symmetry_Int_Tables_number   1
_chemical_formula_structural   SmMg3
_chemical_formula_sum   'Sm2 Mg6'
_cell_volume   206.60030437
_cell_formula_units_Z   2
loop_
 _symmetry_equiv_pos_site_id
 _symmetry_equiv_pos_as_xyz
  1  'x, y, z'
loop_
 _atom_site_type_symbol
 _atom_site_label
 _atom_site_symmetry_multiplicity
 _atom_site_fract_x
 _atom_site_fract_y
 _atom_site_fract_z
 _atom_site_occupancy
  Sm  Sm0  1  0.666667  0.333333  0.250000  1
  Sm  Sm1  1  0.333333  0.666667  0.750000  1
  Mg  Mg2  1  0.161928  0.323855  0.250000  1
  Mg  Mg3  1  0.161928  0.838072  0.250000  1
  Mg  Mg4  1  0.676145  0.838072  0.250000  1
  Mg  Mg5  1  0.323855  0.161928  0.750000  1
  Mg  Mg6  1  0.838072  0.161928  0.750000  1
  Mg  Mg7  1  0.838072  0.676145  0.750000  1
