# generated using pymatgen
data_Ho2Co7B3
_symmetry_space_group_name_H-M   'P 1'
_cell_length_a   4.99892043
_cell_length_b   4.99892043
_cell_length_c   12.80229103
_cell_angle_alpha   90.00000000
_cell_angle_beta   90.00000000
_cell_angle_gamma   120.00000000
_symmetry_Int_Tables_number   1
_chemical_formula_structural   Ho2Co7B3
_chemical_formula_sum   'Ho4 Co14 B6'
_cell_volume   277.05805093
_cell_formula_units_Z   2
loop_
 _symmetry_equiv_pos_site_id
 _symmetry_equiv_pos_as_xyz
  1  'x, y, z'
loop_
 _atom_site_type_symbol
 _atom_site_label
 _atom_site_symmetry_multiplicity
 _atom_site_fract_x
 _atom_site_fract_y
 _atom_site_fract_z
 _atom_site_occupancy
  Ho  Ho0  1  0.000000  0.000000  0.500000  1
  Ho  Ho1  1  0.000000  0.000000  0.260668  1
  Ho  Ho2  1  0.000000  0.000000  0.739332  1
  Ho  Ho3  1  0.000000  0.000000  0.000000  1
  Co  Co4  1  0.333333  0.666667  0.000000  1
  Co  Co5  1  0.666667  0.333333  0.000000  1
  Co  Co6  1  0.500000  0.000000  0.383714  1
  Co  Co7  1  0.000000  0.500000  0.383714  1
  Co  Co8  1  0.500000  0.500000  0.383714  1
  Co  Co9  1  0.500000  0.000000  0.616286  1
  Co  Co10  1  0.500000  0.500000  0.616286  1
  Co  Co11  1  0.000000  0.500000  0.616286  1
  Co  Co12  1  0.500000  0.000000  0.153927  1
  Co  Co13  1  0.000000  0.500000  0.153927  1
  Co  Co14  1  0.500000  0.500000  0.153927  1
  Co  Co15  1  0.500000  0.000000  0.846073  1
  Co  Co16  1  0.500000  0.500000  0.846073  1
  Co  Co17  1  0.000000  0.500000  0.846073  1
  B  B18  1  0.333333  0.666667  0.267973  1
  B  B19  1  0.666667  0.333333  0.267973  1
  B  B20  1  0.666667  0.333333  0.732027  1
  B  B21  1  0.333333  0.666667  0.732027  1
  B  B22  1  0.333333  0.666667  0.500000  1
  B  B23  1  0.666667  0.333333  0.500000  1
