# generated using pymatgen
data_K3AlO3
_symmetry_space_group_name_H-M   'P 1'
_cell_length_a   6.61418264
_cell_length_b   6.61418264
_cell_length_c   6.56091157
_cell_angle_alpha   83.36528279
_cell_angle_beta   96.63471721
_cell_angle_gamma   64.25054904
_symmetry_Int_Tables_number   1
_chemical_formula_structural   K3AlO3
_chemical_formula_sum   'K6 Al2 O6'
_cell_volume   252.34642347
_cell_formula_units_Z   2
loop_
 _symmetry_equiv_pos_site_id
 _symmetry_equiv_pos_as_xyz
  1  'x, y, z'
loop_
 _atom_site_type_symbol
 _atom_site_label
 _atom_site_symmetry_multiplicity
 _atom_site_fract_x
 _atom_site_fract_y
 _atom_site_fract_z
 _atom_site_occupancy
  K  K0  1  0.628280  0.371720  0.351359  1
  K  K1  1  0.371720  0.628280  0.648641  1
  K  K2  1  0.198620  0.198619  0.500000  1
  K  K3  1  0.801380  0.801380  0.500000  1
  K  K4  1  0.264400  0.264400  0.000000  1
  K  K5  1  0.735600  0.735600  0.000000  1
  Al  Al6  1  0.161281  0.838719  0.146173  1
  Al  Al7  1  0.838719  0.161281  0.853827  1
  O  O8  1  0.411800  0.848804  0.262127  1
  O  O9  1  0.848804  0.411800  0.737873  1
  O  O10  1  0.588200  0.151196  0.737873  1
  O  O11  1  0.151196  0.588200  0.262127  1
  O  O12  1  0.101718  0.898282  0.857222  1
  O  O13  1  0.898282  0.101718  0.142778  1
