# generated using pymatgen
data_Ni2W4C
_symmetry_space_group_name_H-M   'P 1'
_cell_length_a   8.00495778
_cell_length_b   8.00495778
_cell_length_c   8.00495778
_cell_angle_alpha   60.00000000
_cell_angle_beta   60.00000000
_cell_angle_gamma   60.00000000
_symmetry_Int_Tables_number   1
_chemical_formula_structural   Ni2W4C
_chemical_formula_sum   'Ni8 W16 C4'
_cell_volume   362.71217984
_cell_formula_units_Z   4
loop_
 _symmetry_equiv_pos_site_id
 _symmetry_equiv_pos_as_xyz
  1  'x, y, z'
loop_
 _atom_site_type_symbol
 _atom_site_label
 _atom_site_symmetry_multiplicity
 _atom_site_fract_x
 _atom_site_fract_y
 _atom_site_fract_z
 _atom_site_occupancy
  Ni  Ni0  1  0.416537  0.750390  0.416537  1
  Ni  Ni1  1  0.416537  0.416537  0.416537  1
  Ni  Ni2  1  0.416537  0.416537  0.750390  1
  Ni  Ni3  1  0.750390  0.416537  0.416537  1
  Ni  Ni4  1  0.833463  0.499610  0.833463  1
  Ni  Ni5  1  0.833463  0.833463  0.833463  1
  Ni  Ni6  1  0.499610  0.833463  0.833463  1
  Ni  Ni7  1  0.833463  0.833463  0.499610  1
  W  W8  1  0.191083  0.808917  0.808917  1
  W  W9  1  0.808917  0.191083  0.191083  1
  W  W10  1  0.808917  0.808917  0.191083  1
  W  W11  1  0.191083  0.808917  0.191083  1
  W  W12  1  0.191083  0.191083  0.808917  1
  W  W13  1  0.808917  0.191083  0.808917  1
  W  W14  1  0.441083  0.441083  0.058917  1
  W  W15  1  0.058917  0.058917  0.441083  1
  W  W16  1  0.058917  0.441083  0.441083  1
  W  W17  1  0.058917  0.441083  0.058917  1
  W  W18  1  0.441083  0.058917  0.058917  1
  W  W19  1  0.441083  0.058917  0.441083  1
  W  W20  1  0.625000  0.125000  0.625000  1
  W  W21  1  0.625000  0.625000  0.625000  1
  W  W22  1  0.625000  0.625000  0.125000  1
  W  W23  1  0.125000  0.625000  0.625000  1
  C  C24  1  0.125000  0.625000  0.125000  1
  C  C25  1  0.125000  0.125000  0.125000  1
  C  C26  1  0.125000  0.125000  0.625000  1
  C  C27  1  0.625000  0.125000  0.125000  1
