# generated using pymatgen
data_Rh3F
_symmetry_space_group_name_H-M   'P 1'
_cell_length_a   4.33568215
_cell_length_b   4.33568215
_cell_length_c   4.33568215
_cell_angle_alpha   123.46841507
_cell_angle_beta   123.46841507
_cell_angle_gamma   84.09067499
_symmetry_Int_Tables_number   1
_chemical_formula_structural   Rh3F
_chemical_formula_sum   'Rh3 F1'
_cell_volume   54.29384561
_cell_formula_units_Z   1
loop_
 _symmetry_equiv_pos_site_id
 _symmetry_equiv_pos_as_xyz
  1  'x, y, z'
loop_
 _atom_site_type_symbol
 _atom_site_label
 _atom_site_symmetry_multiplicity
 _atom_site_fract_x
 _atom_site_fract_y
 _atom_site_fract_z
 _atom_site_occupancy
  Rh  Rh0  1  0.250000  0.750000  0.500000  1
  Rh  Rh1  1  0.750000  0.250000  0.500000  1
  Rh  Rh2  1  0.500000  0.500000  0.000000  1
  F  F3  1  0.000000  0.000000  0.000000  1
