# generated using pymatgen
data_Ni3S
_symmetry_space_group_name_H-M   'P 1'
_cell_length_a   5.08592709
_cell_length_b   5.08592709
_cell_length_c   4.01591721
_cell_angle_alpha   90.00000000
_cell_angle_beta   90.00000000
_cell_angle_gamma   120.00000000
_symmetry_Int_Tables_number   1
_chemical_formula_structural   Ni3S
_chemical_formula_sum   'Ni6 S2'
_cell_volume   89.96128331
_cell_formula_units_Z   2
loop_
 _symmetry_equiv_pos_site_id
 _symmetry_equiv_pos_as_xyz
  1  'x, y, z'
loop_
 _atom_site_type_symbol
 _atom_site_label
 _atom_site_symmetry_multiplicity
 _atom_site_fract_x
 _atom_site_fract_y
 _atom_site_fract_z
 _atom_site_occupancy
  Ni  Ni0  1  0.166858  0.333716  0.250000  1
  Ni  Ni1  1  0.666284  0.833142  0.250000  1
  Ni  Ni2  1  0.166858  0.833142  0.250000  1
  Ni  Ni3  1  0.833142  0.666284  0.750000  1
  Ni  Ni4  1  0.333716  0.166858  0.750000  1
  Ni  Ni5  1  0.833142  0.166858  0.750000  1
  S  S6  1  0.333333  0.666667  0.750000  1
  S  S7  1  0.666667  0.333333  0.250000  1
