# generated using pymatgen
data_NaH6CN2ClO2
_symmetry_space_group_name_H-M   'P 1'
_cell_length_a   9.66781786
_cell_length_b   9.66781786
_cell_length_c   6.43967812
_cell_angle_alpha   70.95006006
_cell_angle_beta   109.04993994
_cell_angle_gamma   149.21174552
_symmetry_Int_Tables_number   1
_chemical_formula_structural   NaH6CN2ClO2
_chemical_formula_sum   'Na2 H12 C2 N4 Cl2 O4'
_cell_volume   289.89839758
_cell_formula_units_Z   2
loop_
 _symmetry_equiv_pos_site_id
 _symmetry_equiv_pos_as_xyz
  1  'x, y, z'
loop_
 _atom_site_type_symbol
 _atom_site_label
 _atom_site_symmetry_multiplicity
 _atom_site_fract_x
 _atom_site_fract_y
 _atom_site_fract_z
 _atom_site_occupancy
  Na  Na0  1  0.309885  0.305916  0.239886  1
  Na  Na1  1  0.305916  0.309885  0.760114  1
  H  H2  1  0.875762  0.789315  0.040662  1
  H  H3  1  0.789043  0.701017  0.550918  1
  H  H4  1  0.974279  0.641683  0.401114  1
  H  H5  1  0.443072  0.082111  0.950890  1
  H  H6  1  0.108943  0.636847  0.843578  1
  H  H7  1  0.456375  0.967178  0.607029  1
  H  H8  1  0.967178  0.456375  0.392971  1
  H  H9  1  0.636847  0.108943  0.156422  1
  H  H10  1  0.082111  0.443072  0.049110  1
  H  H11  1  0.641683  0.974279  0.598886  1
  H  H12  1  0.701017  0.789043  0.449082  1
  H  H13  1  0.789315  0.875762  0.959338  1
  C  C14  1  0.689803  0.365163  0.166729  1
  C  C15  1  0.365163  0.689803  0.833271  1
  N  N16  1  0.888645  0.493115  0.335895  1
  N  N17  1  0.574184  0.162015  0.091797  1
  N  N18  1  0.162015  0.574184  0.908203  1
  N  N19  1  0.493115  0.888645  0.664105  1
  Cl  Cl20  1  0.196909  0.960787  0.613220  1
  Cl  Cl21  1  0.960787  0.196909  0.386780  1
  O  O22  1  0.624687  0.624687  0.500000  1
  O  O23  1  0.957602  0.957602  0.000000  1
  O  O24  1  0.611468  0.431491  0.082239  1
  O  O25  1  0.431491  0.611468  0.917761  1
