# generated using pymatgen
data_Al2Cu
_symmetry_space_group_name_H-M   'P 1'
_cell_length_a   4.92816632
_cell_length_b   4.92816632
_cell_length_c   4.92816632
_cell_angle_alpha   103.82820663
_cell_angle_beta   103.82820663
_cell_angle_gamma   121.46495617
_symmetry_Int_Tables_number   1
_chemical_formula_structural   Al2Cu
_chemical_formula_sum   'Al4 Cu2'
_cell_volume   89.05812804
_cell_formula_units_Z   2
loop_
 _symmetry_equiv_pos_site_id
 _symmetry_equiv_pos_as_xyz
  1  'x, y, z'
loop_
 _atom_site_type_symbol
 _atom_site_label
 _atom_site_symmetry_multiplicity
 _atom_site_fract_x
 _atom_site_fract_y
 _atom_site_fract_z
 _atom_site_occupancy
  Al  Al0  1  0.342389  0.157611  0.500000  1
  Al  Al1  1  0.842389  0.342389  0.184777  1
  Al  Al2  1  0.157611  0.657611  0.815223  1
  Al  Al3  1  0.657611  0.842389  0.500000  1
  Cu  Cu4  1  0.250000  0.250000  0.000000  1
  Cu  Cu5  1  0.750000  0.750000  0.000000  1
