# generated using pymatgen
data_CO2
_symmetry_space_group_name_H-M   'P 1'
_cell_length_a   7.65333284
_cell_length_b   7.65333284
_cell_length_c   7.65333284
_cell_angle_alpha   104.89313191
_cell_angle_beta   104.89313191
_cell_angle_gamma   119.07578791
_symmetry_Int_Tables_number   1
_chemical_formula_structural   CO2
_chemical_formula_sum   'C8 O16'
_cell_volume   337.70818645
_cell_formula_units_Z   8
loop_
 _symmetry_equiv_pos_site_id
 _symmetry_equiv_pos_as_xyz
  1  'x, y, z'
loop_
 _atom_site_type_symbol
 _atom_site_label
 _atom_site_symmetry_multiplicity
 _atom_site_fract_x
 _atom_site_fract_y
 _atom_site_fract_z
 _atom_site_occupancy
  C  C0  1  0.241916  0.376449  0.488829  1
  C  C1  1  0.887620  0.753087  0.511171  1
  C  C2  1  0.626449  0.637620  0.634533  1
  C  C3  1  0.003087  0.991916  0.365467  1
  C  C4  1  0.008084  0.373551  0.011171  1
  C  C5  1  0.362380  0.996913  0.988829  1
  C  C6  1  0.623551  0.112380  0.865467  1
  C  C7  1  0.246913  0.758084  0.134533  1
  O  O8  1  0.426902  0.544056  0.478242  1
  O  O9  1  0.065814  0.948660  0.521758  1
  O  O10  1  0.794056  0.815814  0.617154  1
  O  O11  1  0.198660  0.176902  0.382846  1
  O  O12  1  0.823098  0.205944  0.021758  1
  O  O13  1  0.184186  0.801340  0.978242  1
  O  O14  1  0.455944  0.934186  0.882846  1
  O  O15  1  0.051340  0.573098  0.117154  1
  O  O16  1  0.139701  0.411656  0.568501  1
  O  O17  1  0.843155  0.571200  0.431499  1
  O  O18  1  0.661656  0.593155  0.771955  1
  O  O19  1  0.821200  0.889701  0.228045  1
  O  O20  1  0.110299  0.338344  0.931499  1
  O  O21  1  0.406845  0.178800  0.068501  1
  O  O22  1  0.588344  0.156845  0.728045  1
  O  O23  1  0.428800  0.860299  0.271955  1
