# generated using pymatgen
data_BiS2
_symmetry_space_group_name_H-M   'P 1'
_cell_length_a   8.24061478
_cell_length_b   8.24061478
_cell_length_c   11.62724544
_cell_angle_alpha   53.99405673
_cell_angle_beta   126.00594327
_cell_angle_gamma   151.31697466
_symmetry_Int_Tables_number   1
_chemical_formula_structural   BiS2
_chemical_formula_sum   'Bi4 S8'
_cell_volume   301.23193416
_cell_formula_units_Z   4
loop_
 _symmetry_equiv_pos_site_id
 _symmetry_equiv_pos_as_xyz
  1  'x, y, z'
loop_
 _atom_site_type_symbol
 _atom_site_label
 _atom_site_symmetry_multiplicity
 _atom_site_fract_x
 _atom_site_fract_y
 _atom_site_fract_z
 _atom_site_occupancy
  Bi  Bi0  1  0.297472  0.702528  0.898261  1
  Bi  Bi1  1  0.702528  0.297472  0.101739  1
  Bi  Bi2  1  0.607303  0.392697  0.387803  1
  Bi  Bi3  1  0.392697  0.607303  0.612197  1
  S  S4  1  0.963735  0.036265  0.049625  1
  S  S5  1  0.036265  0.963735  0.950375  1
  S  S6  1  0.076464  0.923536  0.533810  1
  S  S7  1  0.923536  0.076464  0.466190  1
  S  S8  1  0.342667  0.657333  0.157567  1
  S  S9  1  0.657333  0.342667  0.842433  1
  S  S10  1  0.787762  0.212238  0.650870  1
  S  S11  1  0.212238  0.787762  0.349130  1
