# generated using pymatgen
data_AgBrO2
_symmetry_space_group_name_H-M   'P 1'
_cell_length_a   11.04749970
_cell_length_b   11.04749970
_cell_length_c   3.61848419
_cell_angle_alpha   89.67844729
_cell_angle_beta   90.32155271
_cell_angle_gamma   26.23908172
_symmetry_Int_Tables_number   1
_chemical_formula_structural   AgBrO2
_chemical_formula_sum   'Ag2 Br2 O4'
_cell_volume   195.19103375
_cell_formula_units_Z   2
loop_
 _symmetry_equiv_pos_site_id
 _symmetry_equiv_pos_as_xyz
  1  'x, y, z'
loop_
 _atom_site_type_symbol
 _atom_site_label
 _atom_site_symmetry_multiplicity
 _atom_site_fract_x
 _atom_site_fract_y
 _atom_site_fract_z
 _atom_site_occupancy
  Ag  Ag0  1  0.500000  0.000000  0.000000  1
  Ag  Ag1  1  0.000000  0.500000  0.500000  1
  Br  Br2  1  0.342460  0.342460  0.250000  1
  Br  Br3  1  0.657540  0.657540  0.750000  1
  O  O4  1  0.091990  0.846250  0.754250  1
  O  O5  1  0.908010  0.153750  0.245750  1
  O  O6  1  0.846250  0.091990  0.745750  1
  O  O7  1  0.153750  0.908010  0.254250  1
