# generated using pymatgen
data_PbN
_symmetry_space_group_name_H-M   'P 1'
_cell_length_a   3.78575112
_cell_length_b   3.78575112
_cell_length_c   6.55897954
_cell_angle_alpha   90.00000000
_cell_angle_beta   90.00000000
_cell_angle_gamma   120.00000000
_symmetry_Int_Tables_number   1
_chemical_formula_structural   PbN
_chemical_formula_sum   'Pb2 N2'
_cell_volume   81.40873880
_cell_formula_units_Z   2
loop_
 _symmetry_equiv_pos_site_id
 _symmetry_equiv_pos_as_xyz
  1  'x, y, z'
loop_
 _atom_site_type_symbol
 _atom_site_label
 _atom_site_symmetry_multiplicity
 _atom_site_fract_x
 _atom_site_fract_y
 _atom_site_fract_z
 _atom_site_occupancy
  Pb  Pb0  1  0.333333  0.666667  0.370341  1
  Pb  Pb1  1  0.666667  0.333333  0.870341  1
  N  N2  1  0.333333  0.666667  0.004660  1
  N  N3  1  0.666667  0.333333  0.504660  1
