# generated using pymatgen
data_CsInI3
_symmetry_space_group_name_H-M   'P 1'
_cell_length_a   6.18011755
_cell_length_b   6.17685183
_cell_length_c   8.74745045
_cell_angle_alpha   90.00000000
_cell_angle_beta   134.98484515
_cell_angle_gamma   90.00000000
_symmetry_Int_Tables_number   1
_chemical_formula_structural   CsInI3
_chemical_formula_sum   'Cs1 In1 I3'
_cell_volume   236.18116141
_cell_formula_units_Z   1
loop_
 _symmetry_equiv_pos_site_id
 _symmetry_equiv_pos_as_xyz
  1  'x, y, z'
loop_
 _atom_site_type_symbol
 _atom_site_label
 _atom_site_symmetry_multiplicity
 _atom_site_fract_x
 _atom_site_fract_y
 _atom_site_fract_z
 _atom_site_occupancy
  Cs  Cs0  1  0.997007  0.500000  0.999881  1
  In  In1  1  0.989350  0.000000  0.510349  1
  I  I2  1  0.992080  0.500000  0.503141  1
  I  I3  1  0.476322  0.000000  0.492268  1
  I  I4  1  0.495237  0.000000  0.004358  1
