# generated using pymatgen
data_KH4O2F
_symmetry_space_group_name_H-M   'P 1'
_cell_length_a   4.12651843
_cell_length_b   5.19357518
_cell_length_c   8.85596846
_cell_angle_alpha   90.00000000
_cell_angle_beta   90.00000000
_cell_angle_gamma   90.00000000
_symmetry_Int_Tables_number   1
_chemical_formula_structural   KH4O2F
_chemical_formula_sum   'K2 H8 O4 F2'
_cell_volume   189.79565808
_cell_formula_units_Z   2
loop_
 _symmetry_equiv_pos_site_id
 _symmetry_equiv_pos_as_xyz
  1  'x, y, z'
loop_
 _atom_site_type_symbol
 _atom_site_label
 _atom_site_symmetry_multiplicity
 _atom_site_fract_x
 _atom_site_fract_y
 _atom_site_fract_z
 _atom_site_occupancy
  K  K0  1  0.500000  0.608278  0.499957  1
  K  K1  1  0.500000  0.391722  0.999957  1
  H  H2  1  0.310135  0.900815  0.180067  1
  H  H3  1  0.689865  0.900815  0.180067  1
  H  H4  1  0.000000  0.225926  0.291846  1
  H  H5  1  0.000000  0.139256  0.462733  1
  H  H6  1  0.310135  0.099185  0.680067  1
  H  H7  1  0.689865  0.099185  0.680067  1
  H  H8  1  0.000000  0.774074  0.791846  1
  H  H9  1  0.000000  0.860744  0.962733  1
  O  O10  1  0.500000  0.797143  0.211476  1
  O  O11  1  0.000000  0.292097  0.396304  1
  O  O12  1  0.500000  0.202857  0.711476  1
  O  O13  1  0.000000  0.707903  0.896304  1
  F  F14  1  0.000000  0.092416  0.110950  1
  F  F15  1  0.000000  0.907584  0.610950  1
