# generated using pymatgen
data_Fe4OF7
_symmetry_space_group_name_H-M   'P 1'
_cell_length_a   7.61096280
_cell_length_b   7.61096280
_cell_length_c   6.68309812
_cell_angle_alpha   90.00000000
_cell_angle_beta   90.00000000
_cell_angle_gamma   129.13288553
_symmetry_Int_Tables_number   1
_chemical_formula_structural   Fe4OF7
_chemical_formula_sum   'Fe8 O2 F14'
_cell_volume   300.29080557
_cell_formula_units_Z   2
loop_
 _symmetry_equiv_pos_site_id
 _symmetry_equiv_pos_as_xyz
  1  'x, y, z'
loop_
 _atom_site_type_symbol
 _atom_site_label
 _atom_site_symmetry_multiplicity
 _atom_site_fract_x
 _atom_site_fract_y
 _atom_site_fract_z
 _atom_site_occupancy
  Fe  Fe0  1  0.125918  0.874082  0.006830  1
  Fe  Fe1  1  0.624845  0.375155  0.974662  1
  Fe  Fe2  1  0.383702  0.133749  0.508440  1
  Fe  Fe3  1  0.866251  0.616298  0.508440  1
  Fe  Fe4  1  0.616298  0.866251  0.008440  1
  Fe  Fe5  1  0.133749  0.383702  0.008440  1
  Fe  Fe6  1  0.874082  0.125918  0.506830  1
  Fe  Fe7  1  0.375155  0.624845  0.474662  1
  O  O8  1  0.625430  0.374570  0.701178  1
  O  O9  1  0.374570  0.625430  0.201178  1
  F  F10  1  0.769131  0.711936  0.001481  1
  F  F11  1  0.288064  0.230870  0.001481  1
  F  F12  1  0.125356  0.874644  0.706132  1
  F  F13  1  0.124563  0.875437  0.307512  1
  F  F14  1  0.875437  0.124563  0.807512  1
  F  F15  1  0.374481  0.625519  0.779729  1
  F  F16  1  0.625519  0.374481  0.279729  1
  F  F17  1  0.484507  0.040768  0.002058  1
  F  F18  1  0.959232  0.515493  0.002058  1
  F  F19  1  0.711936  0.769130  0.501481  1
  F  F20  1  0.230870  0.288064  0.501481  1
  F  F21  1  0.040768  0.484507  0.502058  1
  F  F22  1  0.515493  0.959232  0.502058  1
  F  F23  1  0.874644  0.125356  0.206132  1
