# generated using pymatgen
data_AsAu3
_symmetry_space_group_name_H-M   'P 1'
_cell_length_a   5.95898506
_cell_length_b   5.95898506
_cell_length_c   4.80890742
_cell_angle_alpha   90.00000000
_cell_angle_beta   90.00000000
_cell_angle_gamma   120.00000000
_symmetry_Int_Tables_number   1
_chemical_formula_structural   AsAu3
_chemical_formula_sum   'As2 Au6'
_cell_volume   147.88415418
_cell_formula_units_Z   2
loop_
 _symmetry_equiv_pos_site_id
 _symmetry_equiv_pos_as_xyz
  1  'x, y, z'
loop_
 _atom_site_type_symbol
 _atom_site_label
 _atom_site_symmetry_multiplicity
 _atom_site_fract_x
 _atom_site_fract_y
 _atom_site_fract_z
 _atom_site_occupancy
  As  As0  1  0.333333  0.666667  0.750000  1
  As  As1  1  0.666667  0.333333  0.250000  1
  Au  Au2  1  0.166832  0.333664  0.250000  1
  Au  Au3  1  0.666336  0.833168  0.250000  1
  Au  Au4  1  0.166832  0.833168  0.250000  1
  Au  Au5  1  0.833168  0.666336  0.750000  1
  Au  Au6  1  0.333664  0.166832  0.750000  1
  Au  Au7  1  0.833168  0.166832  0.750000  1
