# generated using pymatgen
data_LiLu3
_symmetry_space_group_name_H-M   'P 1'
_cell_length_a   6.83932464
_cell_length_b   6.83932464
_cell_length_c   5.41376277
_cell_angle_alpha   90.00000000
_cell_angle_beta   90.00000000
_cell_angle_gamma   120.00000000
_symmetry_Int_Tables_number   1
_chemical_formula_structural   LiLu3
_chemical_formula_sum   'Li2 Lu6'
_cell_volume   219.30891694
_cell_formula_units_Z   2
loop_
 _symmetry_equiv_pos_site_id
 _symmetry_equiv_pos_as_xyz
  1  'x, y, z'
loop_
 _atom_site_type_symbol
 _atom_site_label
 _atom_site_symmetry_multiplicity
 _atom_site_fract_x
 _atom_site_fract_y
 _atom_site_fract_z
 _atom_site_occupancy
  Li  Li0  1  0.666667  0.333333  0.250000  1
  Li  Li1  1  0.333333  0.666667  0.750000  1
  Lu  Lu2  1  0.832134  0.167866  0.750000  1
  Lu  Lu3  1  0.335731  0.167866  0.750000  1
  Lu  Lu4  1  0.832134  0.664269  0.750000  1
  Lu  Lu5  1  0.167866  0.832134  0.250000  1
  Lu  Lu6  1  0.664269  0.832134  0.250000  1
  Lu  Lu7  1  0.167866  0.335731  0.250000  1
