# generated using pymatgen
data_Zn3In
_symmetry_space_group_name_H-M   'P 1'
_cell_length_a   6.11734952
_cell_length_b   6.11734952
_cell_length_c   4.68006807
_cell_angle_alpha   90.00000000
_cell_angle_beta   90.00000000
_cell_angle_gamma   121.79048566
_symmetry_Int_Tables_number   1
_chemical_formula_structural   Zn3In
_chemical_formula_sum   'Zn6 In2'
_cell_volume   148.86327241
_cell_formula_units_Z   2
loop_
 _symmetry_equiv_pos_site_id
 _symmetry_equiv_pos_as_xyz
  1  'x, y, z'
loop_
 _atom_site_type_symbol
 _atom_site_label
 _atom_site_symmetry_multiplicity
 _atom_site_fract_x
 _atom_site_fract_y
 _atom_site_fract_z
 _atom_site_occupancy
  Zn  Zn0  1  0.847039  0.152961  0.250000  1
  Zn  Zn1  1  0.845453  0.691575  0.250000  1
  Zn  Zn2  1  0.308425  0.154547  0.250000  1
  Zn  Zn3  1  0.152961  0.847039  0.750000  1
  Zn  Zn4  1  0.154547  0.308425  0.750000  1
  Zn  Zn5  1  0.691575  0.845453  0.750000  1
  In  In6  1  0.666616  0.333384  0.750000  1
  In  In7  1  0.333384  0.666616  0.250000  1
