# generated using pymatgen
data_Sr3MgIrO6
_symmetry_space_group_name_H-M   'P 1'
_cell_length_a   6.75001385
_cell_length_b   6.75001385
_cell_length_c   6.75001385
_cell_angle_alpha   92.27786848
_cell_angle_beta   92.27786848
_cell_angle_gamma   92.27786848
_symmetry_Int_Tables_number   1
_chemical_formula_structural   Sr3MgIrO6
_chemical_formula_sum   'Sr6 Mg2 Ir2 O12'
_cell_volume   306.79977887
_cell_formula_units_Z   2
loop_
 _symmetry_equiv_pos_site_id
 _symmetry_equiv_pos_as_xyz
  1  'x, y, z'
loop_
 _atom_site_type_symbol
 _atom_site_label
 _atom_site_symmetry_multiplicity
 _atom_site_fract_x
 _atom_site_fract_y
 _atom_site_fract_z
 _atom_site_occupancy
  Sr  Sr0  1  0.885963  0.614037  0.250000  1
  Sr  Sr1  1  0.250000  0.885963  0.614037  1
  Sr  Sr2  1  0.385963  0.750000  0.114037  1
  Sr  Sr3  1  0.114037  0.385963  0.750000  1
  Sr  Sr4  1  0.750000  0.114037  0.385963  1
  Sr  Sr5  1  0.614037  0.250000  0.885963  1
  Mg  Mg6  1  0.250000  0.250000  0.250000  1
  Mg  Mg7  1  0.750000  0.750000  0.750000  1
  Ir  Ir8  1  0.000000  0.000000  0.000000  1
  Ir  Ir9  1  0.500000  0.500000  0.500000  1
  O  O10  1  0.463393  0.595610  0.787001  1
  O  O11  1  0.787001  0.463393  0.595610  1
  O  O12  1  0.595610  0.787001  0.463393  1
  O  O13  1  0.712999  0.904390  0.036607  1
  O  O14  1  0.036607  0.712999  0.904390  1
  O  O15  1  0.904390  0.036607  0.712999  1
  O  O16  1  0.536607  0.404390  0.212999  1
  O  O17  1  0.212999  0.536607  0.404390  1
  O  O18  1  0.404390  0.212999  0.536607  1
  O  O19  1  0.287001  0.095610  0.963393  1
  O  O20  1  0.095610  0.963393  0.287001  1
  O  O21  1  0.963393  0.287001  0.095610  1
