# generated using pymatgen
data_SiAs2
_symmetry_space_group_name_H-M   'P 1'
_cell_length_a   3.69351732
_cell_length_b   10.35096290
_cell_length_c   15.22215628
_cell_angle_alpha   90.00000000
_cell_angle_beta   90.00000000
_cell_angle_gamma   90.00000000
_symmetry_Int_Tables_number   1
_chemical_formula_structural   SiAs2
_chemical_formula_sum   'Si8 As16'
_cell_volume   581.96527035
_cell_formula_units_Z   8
loop_
 _symmetry_equiv_pos_site_id
 _symmetry_equiv_pos_as_xyz
  1  'x, y, z'
loop_
 _atom_site_type_symbol
 _atom_site_label
 _atom_site_symmetry_multiplicity
 _atom_site_fract_x
 _atom_site_fract_y
 _atom_site_fract_z
 _atom_site_occupancy
  Si  Si0  1  0.000000  0.799760  0.234901  1
  Si  Si1  1  0.000000  0.200240  0.765099  1
  Si  Si2  1  0.000000  0.700240  0.734901  1
  Si  Si3  1  0.000000  0.299760  0.265099  1
  Si  Si4  1  0.500000  0.582984  0.352618  1
  Si  Si5  1  0.500000  0.417016  0.647382  1
  Si  Si6  1  0.500000  0.917016  0.852618  1
  Si  Si7  1  0.500000  0.082984  0.147382  1
  As  As8  1  0.000000  0.891154  0.384146  1
  As  As9  1  0.000000  0.108846  0.615854  1
  As  As10  1  0.000000  0.608846  0.884146  1
  As  As11  1  0.000000  0.391154  0.115854  1
  As  As12  1  0.500000  0.762240  0.453848  1
  As  As13  1  0.500000  0.237760  0.546152  1
  As  As14  1  0.500000  0.737760  0.953848  1
  As  As15  1  0.500000  0.262240  0.046152  1
  As  As16  1  0.000000  0.944704  0.110191  1
  As  As17  1  0.000000  0.055296  0.889809  1
  As  As18  1  0.000000  0.555296  0.610191  1
  As  As19  1  0.000000  0.444704  0.389809  1
  As  As20  1  0.500000  0.657058  0.204296  1
  As  As21  1  0.500000  0.342942  0.795704  1
  As  As22  1  0.500000  0.842942  0.704296  1
  As  As23  1  0.500000  0.157058  0.295704  1
