# generated using pymatgen
data_Zn3(PO4)2
_symmetry_space_group_name_H-M   'P 1'
_cell_length_a   4.99059328
_cell_length_b   9.14046930
_cell_length_c   8.24457108
_cell_angle_alpha   90.00000000
_cell_angle_beta   126.51475443
_cell_angle_gamma   90.00000000
_symmetry_Int_Tables_number   1
_chemical_formula_structural   Zn3(PO4)2
_chemical_formula_sum   'Zn6 P4 O16'
_cell_volume   302.26278844
_cell_formula_units_Z   2
loop_
 _symmetry_equiv_pos_site_id
 _symmetry_equiv_pos_as_xyz
  1  'x, y, z'
loop_
 _atom_site_type_symbol
 _atom_site_label
 _atom_site_symmetry_multiplicity
 _atom_site_fract_x
 _atom_site_fract_y
 _atom_site_fract_z
 _atom_site_occupancy
  Zn  Zn0  1  0.304280  0.371074  0.334189  1
  Zn  Zn1  1  0.695720  0.871074  0.165811  1
  Zn  Zn2  1  0.695720  0.628926  0.665811  1
  Zn  Zn3  1  0.304280  0.128926  0.834189  1
  Zn  Zn4  1  0.500000  0.000000  0.500000  1
  Zn  Zn5  1  0.500000  0.500000  0.000000  1
  P  P6  1  0.184857  0.687952  0.169171  1
  P  P7  1  0.815143  0.187952  0.330829  1
  P  P8  1  0.815143  0.312048  0.830829  1
  P  P9  1  0.184857  0.812048  0.669171  1
  O  O10  1  0.138729  0.848016  0.211434  1
  O  O11  1  0.861271  0.348016  0.288566  1
  O  O12  1  0.861271  0.151984  0.788566  1
  O  O13  1  0.138729  0.651984  0.711434  1
  O  O14  1  0.304282  0.588911  0.352658  1
  O  O15  1  0.695718  0.088911  0.147342  1
  O  O16  1  0.695718  0.411089  0.647342  1
  O  O17  1  0.304282  0.911089  0.852658  1
  O  O18  1  0.456794  0.681993  0.130090  1
  O  O19  1  0.543206  0.181993  0.369910  1
  O  O20  1  0.543206  0.318007  0.869910  1
  O  O21  1  0.456794  0.818007  0.630090  1
  O  O22  1  0.846340  0.628581  0.981030  1
  O  O23  1  0.153660  0.128581  0.518970  1
  O  O24  1  0.153660  0.371419  0.018970  1
  O  O25  1  0.846340  0.871419  0.481030  1
