# generated using pymatgen
data_RbSnBr3
_symmetry_space_group_name_H-M   'P 1'
_cell_length_a   5.86490217
_cell_length_b   5.86814244
_cell_length_c   5.87076246
_cell_angle_alpha   89.58245040
_cell_angle_beta   89.53211821
_cell_angle_gamma   89.85346091
_symmetry_Int_Tables_number   1
_chemical_formula_structural   RbSnBr3
_chemical_formula_sum   'Rb1 Sn1 Br3'
_cell_volume   202.03590582
_cell_formula_units_Z   1
loop_
 _symmetry_equiv_pos_site_id
 _symmetry_equiv_pos_as_xyz
  1  'x, y, z'
loop_
 _atom_site_type_symbol
 _atom_site_label
 _atom_site_symmetry_multiplicity
 _atom_site_fract_x
 _atom_site_fract_y
 _atom_site_fract_z
 _atom_site_occupancy
  Rb  Rb0  1  0.005249  0.007600  0.014231  1
  Sn  Sn1  1  0.494069  0.489511  0.485067  1
  Br  Br2  1  0.498577  0.493807  0.981877  1
  Br  Br3  1  0.481927  0.986008  0.480806  1
  Br  Br4  1  0.990177  0.473073  0.468018  1
