# generated using pymatgen
data_Mo4HS8
_symmetry_space_group_name_H-M   'P 1'
_cell_length_a   3.14475443
_cell_length_b   13.03443827
_cell_length_c   29.66873532
_cell_angle_alpha   90.00000000
_cell_angle_beta   90.00000000
_cell_angle_gamma   90.00000000
_symmetry_Int_Tables_number   1
_chemical_formula_structural   Mo4HS8
_chemical_formula_sum   'Mo8 H2 S16'
_cell_volume   1216.12464992
_cell_formula_units_Z   2
loop_
 _symmetry_equiv_pos_site_id
 _symmetry_equiv_pos_as_xyz
  1  'x, y, z'
loop_
 _atom_site_type_symbol
 _atom_site_label
 _atom_site_symmetry_multiplicity
 _atom_site_fract_x
 _atom_site_fract_y
 _atom_site_fract_z
 _atom_site_occupancy
  Mo  Mo0  1  0.000000  0.500000  0.374640  1
  Mo  Mo1  1  0.500000  0.000000  0.530498  1
  Mo  Mo2  1  0.500000  0.500000  0.652932  1
  Mo  Mo3  1  0.000000  0.000000  0.620660  1
  Mo  Mo4  1  0.000000  0.000000  0.436489  1
  Mo  Mo5  1  0.000000  0.500000  0.562998  1
  Mo  Mo6  1  0.500000  0.000000  0.347884  1
  Mo  Mo7  1  0.500000  0.500000  0.469346  1
  H  H8  1  0.500000  0.905751  0.701314  1
  H  H9  1  0.500000  0.094249  0.701314  1
  S  S10  1  0.000000  0.876969  0.373651  1
  S  S11  1  0.500000  0.616912  0.342226  1
  S  S12  1  0.000000  0.378206  0.626520  1
  S  S13  1  0.500000  0.880299  0.468125  1
  S  S14  1  0.000000  0.876173  0.561159  1
  S  S15  1  0.000000  0.620044  0.437290  1
  S  S16  1  0.500000  0.383088  0.342226  1
  S  S17  1  0.500000  0.119701  0.468125  1
  S  S18  1  0.500000  0.878854  0.657199  1
  S  S19  1  0.000000  0.621794  0.626520  1
  S  S20  1  0.000000  0.123827  0.561159  1
  S  S21  1  0.500000  0.121146  0.657199  1
  S  S22  1  0.000000  0.379956  0.437290  1
  S  S23  1  0.000000  0.123031  0.373651  1
  S  S24  1  0.500000  0.619955  0.531442  1
  S  S25  1  0.500000  0.380045  0.531442  1
