# generated using pymatgen
data_SrTcN3
_symmetry_space_group_name_H-M   'P 1'
_cell_length_a   6.69554458
_cell_length_b   6.69554458
_cell_length_c   5.71963558
_cell_angle_alpha   90.00000000
_cell_angle_beta   90.00000000
_cell_angle_gamma   143.28496858
_symmetry_Int_Tables_number   1
_chemical_formula_structural   SrTcN3
_chemical_formula_sum   'Sr2 Tc2 N6'
_cell_volume   153.29283257
_cell_formula_units_Z   2
loop_
 _symmetry_equiv_pos_site_id
 _symmetry_equiv_pos_as_xyz
  1  'x, y, z'
loop_
 _atom_site_type_symbol
 _atom_site_label
 _atom_site_symmetry_multiplicity
 _atom_site_fract_x
 _atom_site_fract_y
 _atom_site_fract_z
 _atom_site_occupancy
  Sr  Sr0  1  0.368771  0.631229  0.750000  1
  Sr  Sr1  1  0.631229  0.368771  0.250000  1
  Tc  Tc2  1  0.905251  0.094749  0.250000  1
  Tc  Tc3  1  0.094749  0.905251  0.750000  1
  N  N4  1  0.545340  0.153557  0.745654  1
  N  N5  1  0.044153  0.044153  0.500000  1
  N  N6  1  0.153557  0.545340  0.254346  1
  N  N7  1  0.846443  0.454660  0.754346  1
  N  N8  1  0.955847  0.955847  0.000000  1
  N  N9  1  0.454660  0.846443  0.245654  1
