# generated using pymatgen
data_RbPbBr3
_symmetry_space_group_name_H-M   'P 1'
_cell_length_a   7.86518430
_cell_length_b   7.86518430
_cell_length_c   11.34292335
_cell_angle_alpha   90.00000000
_cell_angle_beta   90.00000000
_cell_angle_gamma   146.63253845
_symmetry_Int_Tables_number   1
_chemical_formula_structural   RbPbBr3
_chemical_formula_sum   'Rb2 Pb2 Br6'
_cell_volume   385.93188139
_cell_formula_units_Z   2
loop_
 _symmetry_equiv_pos_site_id
 _symmetry_equiv_pos_as_xyz
  1  'x, y, z'
loop_
 _atom_site_type_symbol
 _atom_site_label
 _atom_site_symmetry_multiplicity
 _atom_site_fract_x
 _atom_site_fract_y
 _atom_site_fract_z
 _atom_site_occupancy
  Rb  Rb0  1  0.745659  0.254341  0.750000  1
  Rb  Rb1  1  0.254341  0.745659  0.250000  1
  Pb  Pb2  1  0.000000  0.000000  0.500000  1
  Pb  Pb3  1  0.000000  0.000000  0.000000  1
  Br  Br4  1  0.633206  0.366794  0.444759  1
  Br  Br5  1  0.366794  0.633206  0.944759  1
  Br  Br6  1  0.633206  0.366794  0.055241  1
  Br  Br7  1  0.366794  0.633206  0.555241  1
  Br  Br8  1  0.071701  0.928299  0.750000  1
  Br  Br9  1  0.928299  0.071701  0.250000  1
