# generated using pymatgen
data_Li4UC3O11
_symmetry_space_group_name_H-M   'P 1'
_cell_length_a   8.91790435
_cell_length_b   8.91790435
_cell_length_c   12.53410923
_cell_angle_alpha   90.00000000
_cell_angle_beta   90.00000000
_cell_angle_gamma   120.00000000
_symmetry_Int_Tables_number   1
_chemical_formula_structural   Li4UC3O11
_chemical_formula_sum   'Li16 U4 C12 O44'
_cell_volume   863.27611866
_cell_formula_units_Z   4
loop_
 _symmetry_equiv_pos_site_id
 _symmetry_equiv_pos_as_xyz
  1  'x, y, z'
loop_
 _atom_site_type_symbol
 _atom_site_label
 _atom_site_symmetry_multiplicity
 _atom_site_fract_x
 _atom_site_fract_y
 _atom_site_fract_z
 _atom_site_occupancy
  Li  Li0  1  0.689205  0.122861  0.873318  1
  Li  Li1  1  0.877139  0.566344  0.873318  1
  Li  Li2  1  0.433656  0.310795  0.873318  1
  Li  Li3  1  0.566344  0.877139  0.626682  1
  Li  Li4  1  0.310795  0.433656  0.626682  1
  Li  Li5  1  0.122861  0.689205  0.626682  1
  Li  Li6  1  0.310795  0.877139  0.126682  1
  Li  Li7  1  0.122861  0.433656  0.126682  1
  Li  Li8  1  0.566344  0.689205  0.126682  1
  Li  Li9  1  0.433656  0.122861  0.373318  1
  Li  Li10  1  0.689205  0.566344  0.373318  1
  Li  Li11  1  0.877139  0.310795  0.373318  1
  Li  Li12  1  0.000000  0.000000  0.500000  1
  Li  Li13  1  0.000000  0.000000  0.000000  1
  Li  Li14  1  0.000000  0.000000  0.750000  1
  Li  Li15  1  0.000000  0.000000  0.250000  1
  U  U16  1  0.666667  0.333333  0.629839  1
  U  U17  1  0.333333  0.666667  0.870161  1
  U  U18  1  0.333333  0.666667  0.370161  1
  U  U19  1  0.666667  0.333333  0.129839  1
  C  C20  1  0.251433  0.935519  0.872711  1
  C  C21  1  0.064481  0.315914  0.872711  1
  C  C22  1  0.684086  0.748567  0.872711  1
  C  C23  1  0.315914  0.064481  0.627289  1
  C  C24  1  0.748567  0.684086  0.627289  1
  C  C25  1  0.935519  0.251433  0.627289  1
  C  C26  1  0.748567  0.064481  0.127289  1
  C  C27  1  0.935519  0.684086  0.127289  1
  C  C28  1  0.315914  0.251433  0.127289  1
  C  C29  1  0.684086  0.935519  0.372711  1
  C  C30  1  0.251433  0.315914  0.372711  1
  C  C31  1  0.064481  0.748567  0.372711  1
  O  O32  1  0.636330  0.864834  0.859694  1
  O  O33  1  0.135166  0.771496  0.859694  1
  O  O34  1  0.228504  0.363670  0.859694  1
  O  O35  1  0.771496  0.135166  0.640306  1
  O  O36  1  0.363670  0.228504  0.640306  1
  O  O37  1  0.864834  0.636330  0.640306  1
  O  O38  1  0.363670  0.135166  0.140306  1
  O  O39  1  0.864834  0.228504  0.140306  1
  O  O40  1  0.771496  0.636330  0.140306  1
  O  O41  1  0.228504  0.864834  0.359694  1
  O  O42  1  0.636330  0.771496  0.359694  1
  O  O43  1  0.135166  0.363670  0.359694  1
  O  O44  1  0.410714  0.965724  0.880026  1
  O  O45  1  0.034276  0.444990  0.880026  1
  O  O46  1  0.555010  0.589286  0.880026  1
  O  O47  1  0.444990  0.034276  0.619974  1
  O  O48  1  0.589286  0.555010  0.619974  1
  O  O49  1  0.965724  0.410714  0.619974  1
  O  O50  1  0.589286  0.034276  0.119974  1
  O  O51  1  0.965724  0.555010  0.119974  1
  O  O52  1  0.444990  0.410714  0.119974  1
  O  O53  1  0.555010  0.965724  0.380026  1
  O  O54  1  0.410714  0.444990  0.380026  1
  O  O55  1  0.034276  0.589286  0.380026  1
  O  O56  1  0.214460  0.055455  0.878016  1
  O  O57  1  0.944545  0.159005  0.878016  1
  O  O58  1  0.840995  0.785540  0.878016  1
  O  O59  1  0.159005  0.944545  0.621984  1
  O  O60  1  0.785540  0.840995  0.621984  1
  O  O61  1  0.055455  0.214460  0.621984  1
  O  O62  1  0.785540  0.944545  0.121984  1
  O  O63  1  0.055455  0.840995  0.121984  1
  O  O64  1  0.159005  0.214460  0.121984  1
  O  O65  1  0.840995  0.055455  0.378016  1
  O  O66  1  0.214460  0.159005  0.378016  1
  O  O67  1  0.944545  0.785540  0.378016  1
  O  O68  1  0.666667  0.333333  0.481648  1
  O  O69  1  0.333333  0.666667  0.018352  1
  O  O70  1  0.333333  0.666667  0.518352  1
  O  O71  1  0.666667  0.333333  0.981648  1
  O  O72  1  0.666667  0.333333  0.778989  1
  O  O73  1  0.333333  0.666667  0.721011  1
  O  O74  1  0.333333  0.666667  0.221011  1
  O  O75  1  0.666667  0.333333  0.278989  1
