# generated using pymatgen
data_K3Gd(PO4)2
_symmetry_space_group_name_H-M   'P 1'
_cell_length_a   7.51437137
_cell_length_b   5.67612993
_cell_length_c   9.53462269
_cell_angle_alpha   90.00000000
_cell_angle_beta   91.40212941
_cell_angle_gamma   90.00000000
_symmetry_Int_Tables_number   1
_chemical_formula_structural   K3Gd(PO4)2
_chemical_formula_sum   'K6 Gd2 P4 O16'
_cell_volume   406.55418796
_cell_formula_units_Z   2
loop_
 _symmetry_equiv_pos_site_id
 _symmetry_equiv_pos_as_xyz
  1  'x, y, z'
loop_
 _atom_site_type_symbol
 _atom_site_label
 _atom_site_symmetry_multiplicity
 _atom_site_fract_x
 _atom_site_fract_y
 _atom_site_fract_z
 _atom_site_occupancy
  K  K0  1  0.863342  0.750000  0.591985  1
  K  K1  1  0.136658  0.250000  0.408015  1
  K  K2  1  0.006601  0.750000  0.189425  1
  K  K3  1  0.993399  0.250000  0.810575  1
  K  K4  1  0.699151  0.250000  0.082685  1
  K  K5  1  0.300849  0.750000  0.917315  1
  Gd  Gd6  1  0.506170  0.750000  0.291733  1
  Gd  Gd7  1  0.493830  0.250000  0.708267  1
  P  P8  1  0.731049  0.750000  0.910862  1
  P  P9  1  0.268951  0.250000  0.089138  1
  P  P10  1  0.310079  0.750000  0.572312  1
  P  P11  1  0.689921  0.250000  0.427688  1
  O  O12  1  0.674844  0.750000  0.067415  1
  O  O13  1  0.325156  0.250000  0.932585  1
  O  O14  1  0.934573  0.750000  0.897813  1
  O  O15  1  0.065427  0.250000  0.102187  1
  O  O16  1  0.348384  0.025883  0.163603  1
  O  O17  1  0.651616  0.525883  0.836397  1
  O  O18  1  0.651616  0.974117  0.836397  1
  O  O19  1  0.348384  0.474117  0.163603  1
  O  O20  1  0.217458  0.750000  0.423691  1
  O  O21  1  0.782542  0.250000  0.576309  1
  O  O22  1  0.255943  0.525817  0.656310  1
  O  O23  1  0.744057  0.025817  0.343690  1
  O  O24  1  0.744057  0.474183  0.343690  1
  O  O25  1  0.255943  0.974183  0.656310  1
  O  O26  1  0.513254  0.750000  0.546836  1
  O  O27  1  0.486746  0.250000  0.453164  1
