# generated using pymatgen
data_LiYb2InGe2
_symmetry_space_group_name_H-M   'P 1'
_cell_length_a   4.40166842
_cell_length_b   7.18733409
_cell_length_c   16.73207594
_cell_angle_alpha   90.00000000
_cell_angle_beta   90.00000000
_cell_angle_gamma   90.00000000
_symmetry_Int_Tables_number   1
_chemical_formula_structural   LiYb2InGe2
_chemical_formula_sum   'Li4 Yb8 In4 Ge8'
_cell_volume   529.34032967
_cell_formula_units_Z   4
loop_
 _symmetry_equiv_pos_site_id
 _symmetry_equiv_pos_as_xyz
  1  'x, y, z'
loop_
 _atom_site_type_symbol
 _atom_site_label
 _atom_site_symmetry_multiplicity
 _atom_site_fract_x
 _atom_site_fract_y
 _atom_site_fract_z
 _atom_site_occupancy
  Li  Li0  1  0.750000  0.989049  0.567586  1
  Li  Li1  1  0.250000  0.510951  0.067586  1
  Li  Li2  1  0.750000  0.489049  0.932414  1
  Li  Li3  1  0.250000  0.010951  0.432414  1
  Yb  Yb4  1  0.750000  0.987176  0.278658  1
  Yb  Yb5  1  0.250000  0.512824  0.778658  1
  Yb  Yb6  1  0.750000  0.487176  0.221342  1
  Yb  Yb7  1  0.250000  0.012824  0.721342  1
  Yb  Yb8  1  0.750000  0.840948  0.062078  1
  Yb  Yb9  1  0.250000  0.659052  0.562078  1
  Yb  Yb10  1  0.750000  0.340948  0.437922  1
  Yb  Yb11  1  0.250000  0.159052  0.937922  1
  In  In12  1  0.750000  0.843476  0.847612  1
  In  In13  1  0.250000  0.656524  0.347612  1
  In  In14  1  0.750000  0.343476  0.652388  1
  In  In15  1  0.250000  0.156524  0.152388  1
  Ge  Ge16  1  0.750000  0.729104  0.685091  1
  Ge  Ge17  1  0.250000  0.770896  0.185091  1
  Ge  Ge18  1  0.750000  0.229104  0.814909  1
  Ge  Ge19  1  0.250000  0.270896  0.314909  1
  Ge  Ge20  1  0.750000  0.771296  0.438539  1
  Ge  Ge21  1  0.250000  0.728704  0.938539  1
  Ge  Ge22  1  0.750000  0.271296  0.061461  1
  Ge  Ge23  1  0.250000  0.228704  0.561461  1
