# generated using pymatgen
data_LaMoN3
_symmetry_space_group_name_H-M   'P 1'
_cell_length_a   5.83559003
_cell_length_b   3.89039000
_cell_length_c   7.98779000
_cell_angle_alpha   90.00000000
_cell_angle_beta   108.90537315
_cell_angle_gamma   90.00000000
_symmetry_Int_Tables_number   1
_chemical_formula_structural   LaMoN3
_chemical_formula_sum   'La2 Mo2 N6'
_cell_volume   171.56193189
_cell_formula_units_Z   2
loop_
 _symmetry_equiv_pos_site_id
 _symmetry_equiv_pos_as_xyz
  1  'x, y, z'
loop_
 _atom_site_type_symbol
 _atom_site_label
 _atom_site_symmetry_multiplicity
 _atom_site_fract_x
 _atom_site_fract_y
 _atom_site_fract_z
 _atom_site_occupancy
  La  La0  1  0.258250  0.750000  0.310520  1
  La  La1  1  0.741750  0.250000  0.689480  1
  Mo  Mo2  1  0.355210  0.750000  0.830830  1
  Mo  Mo3  1  0.644790  0.250000  0.169170  1
  N  N4  1  0.458510  0.750000  0.633110  1
  N  N5  1  0.031270  0.750000  0.762980  1
  N  N6  1  0.541490  0.250000  0.366890  1
  N  N7  1  0.520140  0.750000  0.109740  1
  N  N8  1  0.479860  0.250000  0.890260  1
  N  N9  1  0.968730  0.250000  0.237020  1
