# generated using pymatgen
data_TaMoN
_symmetry_space_group_name_H-M   'P 1'
_cell_length_a   3.09466850
_cell_length_b   3.09466850
_cell_length_c   7.86599231
_cell_angle_alpha   90.00000000
_cell_angle_beta   90.00000000
_cell_angle_gamma   90.00000000
_symmetry_Int_Tables_number   1
_chemical_formula_structural   TaMoN
_chemical_formula_sum   'Ta2 Mo2 N2'
_cell_volume   75.33239695
_cell_formula_units_Z   2
loop_
 _symmetry_equiv_pos_site_id
 _symmetry_equiv_pos_as_xyz
  1  'x, y, z'
loop_
 _atom_site_type_symbol
 _atom_site_label
 _atom_site_symmetry_multiplicity
 _atom_site_fract_x
 _atom_site_fract_y
 _atom_site_fract_z
 _atom_site_occupancy
  Ta  Ta0  1  0.000000  0.500000  0.664771  1
  Ta  Ta1  1  0.500000  0.000000  0.335229  1
  Mo  Mo2  1  0.500000  0.000000  0.902629  1
  Mo  Mo3  1  0.000000  0.500000  0.097371  1
  N  N4  1  0.000000  0.500000  0.376410  1
  N  N5  1  0.500000  0.000000  0.623590  1
