# generated using pymatgen
data_RbAuS
_symmetry_space_group_name_H-M   'P 1'
_cell_length_a   5.29380680
_cell_length_b   5.29380680
_cell_length_c   7.09793507
_cell_angle_alpha   90.00000000
_cell_angle_beta   90.00000000
_cell_angle_gamma   100.88158762
_symmetry_Int_Tables_number   1
_chemical_formula_structural   RbAuS
_chemical_formula_sum   'Rb2 Au2 S2'
_cell_volume   195.33869268
_cell_formula_units_Z   2
loop_
 _symmetry_equiv_pos_site_id
 _symmetry_equiv_pos_as_xyz
  1  'x, y, z'
loop_
 _atom_site_type_symbol
 _atom_site_label
 _atom_site_symmetry_multiplicity
 _atom_site_fract_x
 _atom_site_fract_y
 _atom_site_fract_z
 _atom_site_occupancy
  Rb  Rb0  1  0.375549  0.624451  0.750000  1
  Rb  Rb1  1  0.624451  0.375549  0.250000  1
  Au  Au2  1  0.000000  0.000000  0.000000  1
  Au  Au3  1  0.000000  0.000000  0.500000  1
  S  S4  1  0.813716  0.186284  0.750000  1
  S  S5  1  0.186284  0.813716  0.250000  1
