# generated using pymatgen
data_Re3Si
_symmetry_space_group_name_H-M   'P 1'
_cell_length_a   5.49228805
_cell_length_b   5.49228805
_cell_length_c   4.42665247
_cell_angle_alpha   90.00000000
_cell_angle_beta   90.00000000
_cell_angle_gamma   120.00000000
_symmetry_Int_Tables_number   1
_chemical_formula_structural   Re3Si
_chemical_formula_sum   'Re6 Si2'
_cell_volume   115.64122199
_cell_formula_units_Z   2
loop_
 _symmetry_equiv_pos_site_id
 _symmetry_equiv_pos_as_xyz
  1  'x, y, z'
loop_
 _atom_site_type_symbol
 _atom_site_label
 _atom_site_symmetry_multiplicity
 _atom_site_fract_x
 _atom_site_fract_y
 _atom_site_fract_z
 _atom_site_occupancy
  Re  Re0  1  0.170289  0.340578  0.250000  1
  Re  Re1  1  0.659422  0.829711  0.250000  1
  Re  Re2  1  0.170289  0.829711  0.250000  1
  Re  Re3  1  0.829711  0.659422  0.750000  1
  Re  Re4  1  0.340578  0.170289  0.750000  1
  Re  Re5  1  0.829711  0.170289  0.750000  1
  Si  Si6  1  0.333333  0.666667  0.750000  1
  Si  Si7  1  0.666667  0.333333  0.250000  1
