# generated using pymatgen
data_Ti2Si2O5
_symmetry_space_group_name_H-M   'P 1'
_cell_length_a   3.78656700
_cell_length_b   3.78656700
_cell_length_c   5.80932998
_cell_angle_alpha   90.00000000
_cell_angle_beta   90.00000000
_cell_angle_gamma   90.00000000
_symmetry_Int_Tables_number   1
_chemical_formula_structural   Ti2Si2O5
_chemical_formula_sum   'Ti2 Si2 O5'
_cell_volume   83.29469382
_cell_formula_units_Z   1
loop_
 _symmetry_equiv_pos_site_id
 _symmetry_equiv_pos_as_xyz
  1  'x, y, z'
loop_
 _atom_site_type_symbol
 _atom_site_label
 _atom_site_symmetry_multiplicity
 _atom_site_fract_x
 _atom_site_fract_y
 _atom_site_fract_z
 _atom_site_occupancy
  Ti  Ti0  1  0.000000  0.000000  0.000000  1
  Ti  Ti1  1  0.000000  0.000000  0.500000  1
  Si  Si2  1  0.500000  0.500000  0.209177  1
  Si  Si3  1  0.500000  0.500000  0.790823  1
  O  O4  1  0.500000  0.000000  0.227929  1
  O  O5  1  0.500000  0.000000  0.772071  1
  O  O6  1  0.500000  0.500000  0.500000  1
  O  O7  1  0.000000  0.500000  0.227929  1
  O  O8  1  0.000000  0.500000  0.772071  1
