# generated using pymatgen
data_DyGeRh
_symmetry_space_group_name_H-M   'P 1'
_cell_length_a   4.34508148
_cell_length_b   6.96246416
_cell_length_c   7.55707332
_cell_angle_alpha   90.00000000
_cell_angle_beta   90.00000000
_cell_angle_gamma   90.00000000
_symmetry_Int_Tables_number   1
_chemical_formula_structural   DyGeRh
_chemical_formula_sum   'Dy4 Ge4 Rh4'
_cell_volume   228.62016471
_cell_formula_units_Z   4
loop_
 _symmetry_equiv_pos_site_id
 _symmetry_equiv_pos_as_xyz
  1  'x, y, z'
loop_
 _atom_site_type_symbol
 _atom_site_label
 _atom_site_symmetry_multiplicity
 _atom_site_fract_x
 _atom_site_fract_y
 _atom_site_fract_z
 _atom_site_occupancy
  Dy  Dy0  1  0.750000  0.501600  0.803362  1
  Dy  Dy1  1  0.750000  0.001600  0.696638  1
  Dy  Dy2  1  0.250000  0.498400  0.196638  1
  Dy  Dy3  1  0.250000  0.998400  0.303362  1
  Ge  Ge4  1  0.750000  0.209082  0.101768  1
  Ge  Ge5  1  0.750000  0.709082  0.398232  1
  Ge  Ge6  1  0.250000  0.790918  0.898232  1
  Ge  Ge7  1  0.250000  0.290918  0.601768  1
  Rh  Rh8  1  0.750000  0.339104  0.428309  1
  Rh  Rh9  1  0.750000  0.839104  0.071691  1
  Rh  Rh10  1  0.250000  0.660896  0.571691  1
  Rh  Rh11  1  0.250000  0.160896  0.928309  1
