# generated using pymatgen
data_Li3V2(PO4)3
_symmetry_space_group_name_H-M   'P 1'
_cell_length_a   8.75954044
_cell_length_b   8.82299953
_cell_length_c   12.22920528
_cell_angle_alpha   90.00000000
_cell_angle_beta   90.00000000
_cell_angle_gamma   90.00000000
_symmetry_Int_Tables_number   1
_chemical_formula_structural   Li3V2(PO4)3
_chemical_formula_sum   'Li12 V8 P12 O48'
_cell_volume   945.13928209
_cell_formula_units_Z   4
loop_
 _symmetry_equiv_pos_site_id
 _symmetry_equiv_pos_as_xyz
  1  'x, y, z'
loop_
 _atom_site_type_symbol
 _atom_site_label
 _atom_site_symmetry_multiplicity
 _atom_site_fract_x
 _atom_site_fract_y
 _atom_site_fract_z
 _atom_site_occupancy
  Li  Li0  1  0.530646  0.979961  0.820076  1
  Li  Li1  1  0.530646  0.020039  0.179924  1
  Li  Li2  1  0.469354  0.520039  0.320076  1
  Li  Li3  1  0.469354  0.479961  0.679924  1
  Li  Li4  1  0.197081  0.324571  0.787365  1
  Li  Li5  1  0.197081  0.675429  0.212635  1
  Li  Li6  1  0.052794  0.984134  0.683268  1
  Li  Li7  1  0.052794  0.015866  0.316732  1
  Li  Li8  1  0.947206  0.484134  0.816732  1
  Li  Li9  1  0.947206  0.515866  0.183268  1
  Li  Li10  1  0.802919  0.824571  0.712635  1
  Li  Li11  1  0.802919  0.175429  0.287365  1
  V  V12  1  0.496569  0.791697  0.614123  1
  V  V13  1  0.496569  0.208303  0.385877  1
  V  V14  1  0.503431  0.291697  0.885877  1
  V  V15  1  0.503431  0.708303  0.114123  1
  V  V16  1  0.008221  0.792910  0.888687  1
  V  V17  1  0.008221  0.207090  0.111313  1
  V  V18  1  0.991779  0.292910  0.611313  1
  V  V19  1  0.991779  0.707090  0.388687  1
  P  P20  1  0.705111  0.500000  0.500000  1
  P  P21  1  0.644845  0.647730  0.853686  1
  P  P22  1  0.644845  0.352270  0.146314  1
  P  P23  1  0.355155  0.147730  0.646314  1
  P  P24  1  0.355155  0.852270  0.353686  1
  P  P25  1  0.294889  0.000000  0.000000  1
  P  P26  1  0.204718  0.500000  0.000000  1
  P  P27  1  0.143658  0.645634  0.647451  1
  P  P28  1  0.143658  0.354366  0.352549  1
  P  P29  1  0.856342  0.854366  0.147451  1
  P  P30  1  0.856342  0.145634  0.852549  1
  P  P31  1  0.795282  0.000000  0.500000  1
  O  O32  1  0.699793  0.106061  0.425652  1
  O  O33  1  0.699793  0.893939  0.574348  1
  O  O34  1  0.680587  0.153598  0.837691  1
  O  O35  1  0.680587  0.846402  0.162309  1
  O  O36  1  0.598068  0.685501  0.969417  1
  O  O37  1  0.598068  0.314499  0.030583  1
  O  O38  1  0.589657  0.489178  0.818728  1
  O  O39  1  0.589657  0.510822  0.181272  1
  O  O40  1  0.600131  0.591861  0.577604  1
  O  O41  1  0.600131  0.408139  0.422396  1
  O  O42  1  0.583459  0.773227  0.772971  1
  O  O43  1  0.583459  0.226773  0.227029  1
  O  O44  1  0.416541  0.273227  0.727029  1
  O  O45  1  0.416541  0.726773  0.272971  1
  O  O46  1  0.399869  0.091861  0.922396  1
  O  O47  1  0.399869  0.908139  0.077604  1
  O  O48  1  0.410343  0.010822  0.318728  1
  O  O49  1  0.410343  0.989178  0.681272  1
  O  O50  1  0.401932  0.185501  0.530583  1
  O  O51  1  0.401932  0.814499  0.469417  1
  O  O52  1  0.319413  0.346402  0.337691  1
  O  O53  1  0.319413  0.653598  0.662309  1
  O  O54  1  0.300207  0.393939  0.925652  1
  O  O55  1  0.300207  0.606061  0.074348  1
  O  O56  1  0.197000  0.103257  0.072959  1
  O  O57  1  0.197000  0.896743  0.927041  1
  O  O58  1  0.178762  0.158160  0.662457  1
  O  O59  1  0.178762  0.841840  0.337543  1
  O  O60  1  0.094925  0.674934  0.529812  1
  O  O61  1  0.094925  0.325066  0.470188  1
  O  O62  1  0.093256  0.483789  0.686468  1
  O  O63  1  0.093256  0.516211  0.313532  1
  O  O64  1  0.098226  0.587465  0.920804  1
  O  O65  1  0.098226  0.412535  0.079196  1
  O  O66  1  0.063184  0.767429  0.721020  1
  O  O67  1  0.063184  0.232571  0.278980  1
  O  O68  1  0.936816  0.267429  0.778980  1
  O  O69  1  0.936816  0.732571  0.221020  1
  O  O70  1  0.901774  0.087465  0.579196  1
  O  O71  1  0.901774  0.912535  0.420804  1
  O  O72  1  0.906744  0.983789  0.813532  1
  O  O73  1  0.906744  0.016211  0.186468  1
  O  O74  1  0.905075  0.174934  0.970188  1
  O  O75  1  0.905075  0.825066  0.029812  1
  O  O76  1  0.821238  0.341840  0.162457  1
  O  O77  1  0.821238  0.658160  0.837543  1
  O  O78  1  0.803000  0.396743  0.572959  1
  O  O79  1  0.803000  0.603257  0.427041  1
