# generated using pymatgen
data_Dy(CuO2)2
_symmetry_space_group_name_H-M   'P 1'
_cell_length_a   6.28762316
_cell_length_b   6.28762316
_cell_length_c   6.28762316
_cell_angle_alpha   126.13157813
_cell_angle_beta   126.13157813
_cell_angle_gamma   79.67199068
_symmetry_Int_Tables_number   1
_chemical_formula_structural   Dy(CuO2)2
_chemical_formula_sum   'Dy2 Cu4 O8'
_cell_volume   156.65595428
_cell_formula_units_Z   2
loop_
 _symmetry_equiv_pos_site_id
 _symmetry_equiv_pos_as_xyz
  1  'x, y, z'
loop_
 _atom_site_type_symbol
 _atom_site_label
 _atom_site_symmetry_multiplicity
 _atom_site_fract_x
 _atom_site_fract_y
 _atom_site_fract_z
 _atom_site_occupancy
  Dy  Dy0  1  0.000000  0.000000  0.000000  1
  Dy  Dy1  1  0.750000  0.250000  0.500000  1
  Cu  Cu2  1  0.875000  0.625000  0.250000  1
  Cu  Cu3  1  0.375000  0.625000  0.750000  1
  Cu  Cu4  1  0.375000  0.125000  0.750000  1
  Cu  Cu5  1  0.375000  0.625000  0.250000  1
  O  O6  1  0.405027  0.844813  0.144829  1
  O  O7  1  0.699984  0.260198  0.855171  1
  O  O8  1  0.344973  0.405187  0.355171  1
  O  O9  1  0.050016  0.989802  0.644829  1
  O  O10  1  0.010198  0.655027  0.060214  1
  O  O11  1  0.594813  0.949984  0.939786  1
  O  O12  1  0.155187  0.300016  0.560214  1
  O  O13  1  0.739802  0.594973  0.439786  1
