# generated using pymatgen
data_ZrSb2
_symmetry_space_group_name_H-M   'P 1'
_cell_length_a   3.92986397
_cell_length_b   10.08692949
_cell_length_c   15.11171593
_cell_angle_alpha   90.00000000
_cell_angle_beta   90.00000000
_cell_angle_gamma   90.00000000
_symmetry_Int_Tables_number   1
_chemical_formula_structural   ZrSb2
_chemical_formula_sum   'Zr8 Sb16'
_cell_volume   599.03236016
_cell_formula_units_Z   8
loop_
 _symmetry_equiv_pos_site_id
 _symmetry_equiv_pos_as_xyz
  1  'x, y, z'
loop_
 _atom_site_type_symbol
 _atom_site_label
 _atom_site_symmetry_multiplicity
 _atom_site_fract_x
 _atom_site_fract_y
 _atom_site_fract_z
 _atom_site_occupancy
  Zr  Zr0  1  0.500000  0.668662  0.993103  1
  Zr  Zr1  1  0.500000  0.331338  0.006897  1
  Zr  Zr2  1  0.000000  0.168662  0.506897  1
  Zr  Zr3  1  0.000000  0.831338  0.493103  1
  Zr  Zr4  1  0.000000  0.978706  0.748962  1
  Zr  Zr5  1  0.000000  0.021294  0.251038  1
  Zr  Zr6  1  0.500000  0.478706  0.751038  1
  Zr  Zr7  1  0.500000  0.521294  0.248962  1
  Sb  Sb8  1  0.000000  0.883113  0.941773  1
  Sb  Sb9  1  0.000000  0.116887  0.058227  1
  Sb  Sb10  1  0.500000  0.383113  0.558227  1
  Sb  Sb11  1  0.500000  0.616887  0.441773  1
  Sb  Sb12  1  0.000000  0.660232  0.656698  1
  Sb  Sb13  1  0.000000  0.339768  0.343302  1
  Sb  Sb14  1  0.500000  0.160232  0.843302  1
  Sb  Sb15  1  0.500000  0.839768  0.156698  1
  Sb  Sb16  1  0.500000  0.769247  0.801488  1
  Sb  Sb17  1  0.500000  0.230753  0.198512  1
  Sb  Sb18  1  0.000000  0.269247  0.698512  1
  Sb  Sb19  1  0.000000  0.730753  0.301488  1
  Sb  Sb20  1  0.500000  0.988414  0.602794  1
  Sb  Sb21  1  0.500000  0.011586  0.397206  1
  Sb  Sb22  1  0.000000  0.488414  0.897206  1
  Sb  Sb23  1  0.000000  0.511586  0.102794  1
