# generated using pymatgen
data_Tm3(GePd)4
_symmetry_space_group_name_H-M   'P 1'
_cell_length_a   8.07550373
_cell_length_b   8.07550373
_cell_length_c   8.07550373
_cell_angle_alpha   150.25885856
_cell_angle_beta   127.87421812
_cell_angle_gamma   61.17044798
_symmetry_Int_Tables_number   1
_chemical_formula_structural   Tm3(GePd)4
_chemical_formula_sum   'Tm3 Ge4 Pd4'
_cell_volume   204.47693024
_cell_formula_units_Z   1
loop_
 _symmetry_equiv_pos_site_id
 _symmetry_equiv_pos_as_xyz
  1  'x, y, z'
loop_
 _atom_site_type_symbol
 _atom_site_label
 _atom_site_symmetry_multiplicity
 _atom_site_fract_x
 _atom_site_fract_y
 _atom_site_fract_z
 _atom_site_occupancy
  Tm  Tm0  1  0.874368  0.374368  0.500000  1
  Tm  Tm1  1  0.125632  0.625632  0.500000  1
  Tm  Tm2  1  0.500000  0.500000  0.000000  1
  Ge  Ge3  1  0.188284  0.000000  0.188284  1
  Ge  Ge4  1  0.811716  1.000000  0.811716  1
  Ge  Ge5  1  0.717935  0.717935  0.000000  1
  Ge  Ge6  1  0.282065  0.282065  0.000000  1
  Pd  Pd7  1  0.123598  0.825099  0.298499  1
  Pd  Pd8  1  0.473400  0.174901  0.298499  1
  Pd  Pd9  1  0.526600  0.825099  0.701501  1
  Pd  Pd10  1  0.876402  0.174901  0.701501  1
