# generated using pymatgen
data_SmEr3
_symmetry_space_group_name_H-M   'P 1'
_cell_length_a   6.11534396
_cell_length_b   6.11534396
_cell_length_c   6.11534396
_cell_angle_alpha   131.68601593
_cell_angle_beta   131.68601593
_cell_angle_gamma   70.72538493
_symmetry_Int_Tables_number   1
_chemical_formula_structural   SmEr3
_chemical_formula_sum   'Sm1 Er3'
_cell_volume   124.94003788
_cell_formula_units_Z   1
loop_
 _symmetry_equiv_pos_site_id
 _symmetry_equiv_pos_as_xyz
  1  'x, y, z'
loop_
 _atom_site_type_symbol
 _atom_site_label
 _atom_site_symmetry_multiplicity
 _atom_site_fract_x
 _atom_site_fract_y
 _atom_site_fract_z
 _atom_site_occupancy
  Sm  Sm0  1  0.000000  0.000000  0.000000  1
  Er  Er1  1  0.250000  0.750000  0.500000  1
  Er  Er2  1  0.750000  0.250000  0.500000  1
  Er  Er3  1  0.500000  0.500000  0.000000  1
