# generated using pymatgen
data_CsCaI3
_symmetry_space_group_name_H-M   'P 1'
_cell_length_a   4.76388300
_cell_length_b   10.80214400
_cell_length_c   18.11884700
_cell_angle_alpha   90.00000000
_cell_angle_beta   90.00000000
_cell_angle_gamma   90.00000000
_symmetry_Int_Tables_number   1
_chemical_formula_structural   CsCaI3
_chemical_formula_sum   'Cs4 Ca4 I12'
_cell_volume   932.39858744
_cell_formula_units_Z   4
loop_
 _symmetry_equiv_pos_site_id
 _symmetry_equiv_pos_as_xyz
  1  'x, y, z'
loop_
 _atom_site_type_symbol
 _atom_site_label
 _atom_site_symmetry_multiplicity
 _atom_site_fract_x
 _atom_site_fract_y
 _atom_site_fract_z
 _atom_site_occupancy
  Cs  Cs0  1  0.750000  0.071467  0.324758  1
  Cs  Cs1  1  0.250000  0.928533  0.675242  1
  Cs  Cs2  1  0.750000  0.571467  0.175242  1
  Cs  Cs3  1  0.250000  0.428533  0.824758  1
  Ca  Ca4  1  0.250000  0.162583  0.055869  1
  Ca  Ca5  1  0.750000  0.837417  0.944131  1
  Ca  Ca6  1  0.250000  0.662583  0.444131  1
  Ca  Ca7  1  0.750000  0.337417  0.555869  1
  I  I8  1  0.750000  0.329188  0.996578  1
  I  I9  1  0.250000  0.670812  0.003422  1
  I  I10  1  0.750000  0.829188  0.503422  1
  I  I11  1  0.250000  0.170812  0.496578  1
  I  I12  1  0.250000  0.024087  0.899461  1
  I  I13  1  0.750000  0.975913  0.100539  1
  I  I14  1  0.250000  0.524087  0.600539  1
  I  I15  1  0.750000  0.475913  0.399461  1
  I  I16  1  0.250000  0.285254  0.208524  1
  I  I17  1  0.750000  0.714746  0.791476  1
  I  I18  1  0.250000  0.785254  0.291476  1
  I  I19  1  0.750000  0.214746  0.708524  1
