# generated using pymatgen
data_Li3Mn3(PO4)4
_symmetry_space_group_name_H-M   'P 1'
_cell_length_a   8.10125719
_cell_length_b   9.06890799
_cell_length_c   13.42394201
_cell_angle_alpha   94.58377235
_cell_angle_beta   90.09851730
_cell_angle_gamma   90.02272980
_symmetry_Int_Tables_number   1
_chemical_formula_structural   Li3Mn3(PO4)4
_chemical_formula_sum   'Li9 Mn9 P12 O48'
_cell_volume   983.09499331
_cell_formula_units_Z   3
loop_
 _symmetry_equiv_pos_site_id
 _symmetry_equiv_pos_as_xyz
  1  'x, y, z'
loop_
 _atom_site_type_symbol
 _atom_site_label
 _atom_site_symmetry_multiplicity
 _atom_site_fract_x
 _atom_site_fract_y
 _atom_site_fract_z
 _atom_site_occupancy
  Li  Li0  1  0.514754  0.342610  0.833894  1
  Li  Li1  1  0.484906  0.992193  0.498056  1
  Li  Li2  1  0.853877  0.442504  0.826600  1
  Li  Li3  1  0.352437  0.055272  0.175091  1
  Li  Li4  1  0.996014  0.820652  0.839689  1
  Li  Li5  1  0.008703  0.513449  0.498089  1
  Li  Li6  1  0.016716  0.156525  0.166371  1
  Li  Li7  1  0.147656  0.892266  0.505755  1
  Li  Li8  1  0.493034  0.681830  0.163051  1
  Mn  Mn9  1  0.144170  0.224163  0.831978  1
  Mn  Mn10  1  0.857179  0.107948  0.501858  1
  Mn  Mn11  1  0.348073  0.714532  0.844295  1
  Mn  Mn12  1  0.350796  0.388800  0.499127  1
  Mn  Mn13  1  0.644908  0.941727  0.835999  1
  Mn  Mn14  1  0.645454  0.614641  0.496161  1
  Mn  Mn15  1  0.641015  0.272921  0.168742  1
  Mn  Mn16  1  0.152118  0.555903  0.171276  1
  Mn  Mn17  1  0.849896  0.786832  0.155496  1
  P  P18  1  0.803960  0.145962  0.945555  1
  P  P19  1  0.302746  0.023457  0.719599  1
  P  P20  1  0.701673  0.635165  0.944337  1
  P  P21  1  0.698328  0.309276  0.613547  1
  P  P22  1  0.202902  0.518952  0.721585  1
  P  P23  1  0.193927  0.187171  0.385870  1
  P  P24  1  0.797625  0.814794  0.612549  1
  P  P25  1  0.801146  0.476118  0.277846  1
  P  P26  1  0.298033  0.697171  0.388940  1
  P  P27  1  0.302855  0.354648  0.054740  1
  P  P28  1  0.703860  0.980625  0.279124  1
  P  P29  1  0.200182  0.864221  0.055863  1
  O  O30  1  0.132442  0.015875  0.775909  1
  O  O31  1  0.633164  0.150782  0.889208  1
  O  O32  1  0.933128  0.244417  0.898185  1
  O  O33  1  0.292875  0.316583  0.942884  1
  O  O34  1  0.343523  0.191693  0.750777  1
  O  O35  1  0.636594  0.478802  0.927123  1
  O  O36  1  0.656748  0.141610  0.582566  1
  O  O37  1  0.703032  0.349744  0.723536  1
  O  O38  1  0.082771  0.413147  0.768772  1
  O  O39  1  0.710167  0.013954  0.391857  1
  O  O40  1  0.067239  0.088592  0.436660  1
  O  O41  1  0.378681  0.518058  0.772409  1
  O  O42  1  0.864442  0.655631  0.891610  1
  O  O43  1  0.366060  0.183380  0.442248  1
  O  O44  1  0.867971  0.317669  0.556822  1
  O  O45  1  0.569186  0.748450  0.898917  1
  O  O46  1  0.204974  0.815046  0.941269  1
  O  O47  1  0.570689  0.410764  0.560615  1
  O  O48  1  0.208726  0.486098  0.608394  1
  O  O49  1  0.582436  0.085844  0.231353  1
  O  O50  1  0.156047  0.684620  0.753127  1
  O  O51  1  0.202702  0.151012  0.275332  1
  O  O52  1  0.154984  0.356650  0.416999  1
  O  O53  1  0.136226  0.021130  0.072234  1
  O  O54  1  0.841510  0.976338  0.918292  1
  O  O55  1  0.841629  0.647412  0.581707  1
  O  O56  1  0.789905  0.848496  0.725321  1
  O  O57  1  0.842176  0.308350  0.251180  1
  O  O58  1  0.429745  0.921744  0.771789  1
  O  O59  1  0.790761  0.515540  0.390073  1
  O  O60  1  0.429672  0.583519  0.436003  1
  O  O61  1  0.791893  0.185822  0.057058  1
  O  O62  1  0.431095  0.253648  0.101738  1
  O  O63  1  0.134121  0.676626  0.440735  1
  O  O64  1  0.622548  0.815417  0.560142  1
  O  O65  1  0.131187  0.350209  0.109234  1
  O  O66  1  0.631732  0.484320  0.222352  1
  O  O67  1  0.918872  0.918755  0.565107  1
  O  O68  1  0.297709  0.984428  0.609387  1
  O  O69  1  0.931178  0.577828  0.231630  1
  O  O70  1  0.296864  0.645294  0.275411  1
  O  O71  1  0.362854  0.853225  0.407695  1
  O  O72  1  0.343821  0.522780  0.084112  1
  O  O73  1  0.658931  0.814443  0.246899  1
  O  O74  1  0.706604  0.684697  0.058530  1
  O  O75  1  0.068923  0.751276  0.101086  1
  O  O76  1  0.364237  0.844385  0.107689  1
  O  O77  1  0.878280  0.983570  0.226936  1
