# generated using pymatgen
data_Tl3Si
_symmetry_space_group_name_H-M   'P 1'
_cell_length_a   5.37740211
_cell_length_b   5.37740211
_cell_length_c   5.37740211
_cell_angle_alpha   60.00000000
_cell_angle_beta   60.00000000
_cell_angle_gamma   60.00000000
_symmetry_Int_Tables_number   1
_chemical_formula_structural   Tl3Si
_chemical_formula_sum   'Tl3 Si1'
_cell_volume   109.95185048
_cell_formula_units_Z   1
loop_
 _symmetry_equiv_pos_site_id
 _symmetry_equiv_pos_as_xyz
  1  'x, y, z'
loop_
 _atom_site_type_symbol
 _atom_site_label
 _atom_site_symmetry_multiplicity
 _atom_site_fract_x
 _atom_site_fract_y
 _atom_site_fract_z
 _atom_site_occupancy
  Tl  Tl0  1  0.750000  0.750000  0.750000  1
  Tl  Tl1  1  0.250000  0.250000  0.250000  1
  Tl  Tl2  1  0.500000  0.500000  0.500000  1
  Si  Si3  1  0.000000  0.000000  0.000000  1
