# generated using pymatgen
data_CaP3
_symmetry_space_group_name_H-M   'P 1'
_cell_length_a   5.60947223
_cell_length_b   5.63901585
_cell_length_c   5.69460527
_cell_angle_alpha   70.07614886
_cell_angle_beta   79.62722172
_cell_angle_gamma   74.68433950
_symmetry_Int_Tables_number   1
_chemical_formula_structural   CaP3
_chemical_formula_sum   'Ca2 P6'
_cell_volume   162.52798956
_cell_formula_units_Z   2
loop_
 _symmetry_equiv_pos_site_id
 _symmetry_equiv_pos_as_xyz
  1  'x, y, z'
loop_
 _atom_site_type_symbol
 _atom_site_label
 _atom_site_symmetry_multiplicity
 _atom_site_fract_x
 _atom_site_fract_y
 _atom_site_fract_z
 _atom_site_occupancy
  Ca  Ca0  1  0.675713  0.642839  0.647898  1
  Ca  Ca1  1  0.324287  0.357161  0.352102  1
  P  P2  1  0.598928  0.800014  0.101566  1
  P  P3  1  0.401072  0.199986  0.898434  1
  P  P4  1  0.004830  0.199427  0.999483  1
  P  P5  1  0.995170  0.800573  0.000517  1
  P  P6  1  0.127112  0.822345  0.605781  1
  P  P7  1  0.872888  0.177655  0.394219  1
