# generated using pymatgen
data_K3Nb
_symmetry_space_group_name_H-M   'P 1'
_cell_length_a   8.29178330
_cell_length_b   8.29178330
_cell_length_c   6.60698309
_cell_angle_alpha   90.00000000
_cell_angle_beta   90.00000000
_cell_angle_gamma   120.00000000
_symmetry_Int_Tables_number   1
_chemical_formula_structural   K3Nb
_chemical_formula_sum   'K6 Nb2'
_cell_volume   393.39579556
_cell_formula_units_Z   2
loop_
 _symmetry_equiv_pos_site_id
 _symmetry_equiv_pos_as_xyz
  1  'x, y, z'
loop_
 _atom_site_type_symbol
 _atom_site_label
 _atom_site_symmetry_multiplicity
 _atom_site_fract_x
 _atom_site_fract_y
 _atom_site_fract_z
 _atom_site_occupancy
  K  K0  1  0.177077  0.354154  0.250000  1
  K  K1  1  0.645846  0.822923  0.250000  1
  K  K2  1  0.177077  0.822923  0.250000  1
  K  K3  1  0.822923  0.645846  0.750000  1
  K  K4  1  0.354154  0.177077  0.750000  1
  K  K5  1  0.822923  0.177077  0.750000  1
  Nb  Nb6  1  0.333333  0.666667  0.750000  1
  Nb  Nb7  1  0.666667  0.333333  0.250000  1
