# generated using pymatgen
data_TiPd
_symmetry_space_group_name_H-M   'P 1'
_cell_length_a   2.80946530
_cell_length_b   4.58896331
_cell_length_c   4.91534475
_cell_angle_alpha   90.00000000
_cell_angle_beta   92.05164307
_cell_angle_gamma   90.00000000
_symmetry_Int_Tables_number   1
_chemical_formula_structural   TiPd
_chemical_formula_sum   'Ti2 Pd2'
_cell_volume   63.33062204
_cell_formula_units_Z   2
loop_
 _symmetry_equiv_pos_site_id
 _symmetry_equiv_pos_as_xyz
  1  'x, y, z'
loop_
 _atom_site_type_symbol
 _atom_site_label
 _atom_site_symmetry_multiplicity
 _atom_site_fract_x
 _atom_site_fract_y
 _atom_site_fract_z
 _atom_site_occupancy
  Ti  Ti0  1  0.967902  0.250000  0.701769  1
  Ti  Ti1  1  0.032098  0.750000  0.298231  1
  Pd  Pd2  1  0.504437  0.250000  0.187510  1
  Pd  Pd3  1  0.495563  0.750000  0.812490  1
