# generated using pymatgen
data_Zn3Se
_symmetry_space_group_name_H-M   'P 1'
_cell_length_a   5.88061955
_cell_length_b   5.88061955
_cell_length_c   4.78509130
_cell_angle_alpha   90.00000000
_cell_angle_beta   90.00000000
_cell_angle_gamma   120.00000000
_symmetry_Int_Tables_number   1
_chemical_formula_structural   Zn3Se
_chemical_formula_sum   'Zn6 Se2'
_cell_volume   143.30687545
_cell_formula_units_Z   2
loop_
 _symmetry_equiv_pos_site_id
 _symmetry_equiv_pos_as_xyz
  1  'x, y, z'
loop_
 _atom_site_type_symbol
 _atom_site_label
 _atom_site_symmetry_multiplicity
 _atom_site_fract_x
 _atom_site_fract_y
 _atom_site_fract_z
 _atom_site_occupancy
  Zn  Zn0  1  0.159525  0.319050  0.250000  1
  Zn  Zn1  1  0.680950  0.840475  0.250000  1
  Zn  Zn2  1  0.159525  0.840475  0.250000  1
  Zn  Zn3  1  0.840475  0.680950  0.750000  1
  Zn  Zn4  1  0.319050  0.159525  0.750000  1
  Zn  Zn5  1  0.840475  0.159525  0.750000  1
  Se  Se6  1  0.333333  0.666667  0.750000  1
  Se  Se7  1  0.666667  0.333333  0.250000  1
