# generated using pymatgen
data_Pr2Fe17C3
_symmetry_space_group_name_H-M   'P 1'
_cell_length_a   6.56205865
_cell_length_b   6.56205865
_cell_length_c   6.56205865
_cell_angle_alpha   84.07505735
_cell_angle_beta   84.07505735
_cell_angle_gamma   84.07505735
_symmetry_Int_Tables_number   1
_chemical_formula_structural   Pr2Fe17C3
_chemical_formula_sum   'Pr2 Fe17 C3'
_cell_volume   278.32896844
_cell_formula_units_Z   1
loop_
 _symmetry_equiv_pos_site_id
 _symmetry_equiv_pos_as_xyz
  1  'x, y, z'
loop_
 _atom_site_type_symbol
 _atom_site_label
 _atom_site_symmetry_multiplicity
 _atom_site_fract_x
 _atom_site_fract_y
 _atom_site_fract_z
 _atom_site_occupancy
  Pr  Pr0  1  0.344983  0.344983  0.344983  1
  Pr  Pr1  1  0.655017  0.655017  0.655017  1
  Fe  Fe2  1  0.500000  0.000000  0.000000  1
  Fe  Fe3  1  1.000000  0.000000  0.500000  1
  Fe  Fe4  1  0.000000  0.500000  0.000000  1
  Fe  Fe5  1  1.000000  0.715774  0.284226  1
  Fe  Fe6  1  0.715774  0.284226  1.000000  1
  Fe  Fe7  1  0.284226  0.000000  0.715774  1
  Fe  Fe8  1  0.284226  0.715774  0.000000  1
  Fe  Fe9  1  0.715774  0.000000  0.284226  1
  Fe  Fe10  1  0.000000  0.284226  0.715774  1
  Fe  Fe11  1  0.141282  0.659047  0.659047  1
  Fe  Fe12  1  0.659047  0.659047  0.141282  1
  Fe  Fe13  1  0.659047  0.141282  0.659047  1
  Fe  Fe14  1  0.858718  0.340953  0.340953  1
  Fe  Fe15  1  0.340953  0.340953  0.858718  1
  Fe  Fe16  1  0.340953  0.858718  0.340953  1
  Fe  Fe17  1  0.094548  0.094548  0.094548  1
  Fe  Fe18  1  0.905452  0.905452  0.905452  1
  C  C19  1  0.000000  0.500000  0.500000  1
  C  C20  1  0.500000  0.500000  0.000000  1
  C  C21  1  0.500000  0.000000  0.500000  1
