# generated using pymatgen
data_Li2Mg
_symmetry_space_group_name_H-M   'P 1'
_cell_length_a   5.94521152
_cell_length_b   5.94521152
_cell_length_c   7.01742473
_cell_angle_alpha   74.17964398
_cell_angle_beta   105.82035602
_cell_angle_gamma   148.90479444
_symmetry_Int_Tables_number   1
_chemical_formula_structural   Li2Mg
_chemical_formula_sum   'Li4 Mg2'
_cell_volume   122.86452245
_cell_formula_units_Z   2
loop_
 _symmetry_equiv_pos_site_id
 _symmetry_equiv_pos_as_xyz
  1  'x, y, z'
loop_
 _atom_site_type_symbol
 _atom_site_label
 _atom_site_symmetry_multiplicity
 _atom_site_fract_x
 _atom_site_fract_y
 _atom_site_fract_z
 _atom_site_occupancy
  Li  Li0  1  0.017007  0.982993  0.293285  1
  Li  Li1  1  0.316599  0.683401  0.384049  1
  Li  Li2  1  0.683401  0.316599  0.615951  1
  Li  Li3  1  0.982993  0.017007  0.706715  1
  Mg  Mg4  1  0.354235  0.645765  0.948028  1
  Mg  Mg5  1  0.645765  0.354235  0.051972  1
