# generated using pymatgen
data_ScAl
_symmetry_space_group_name_H-M   'P 1'
_cell_length_a   5.67847642
_cell_length_b   5.67847642
_cell_length_c   3.77129172
_cell_angle_alpha   90.00000000
_cell_angle_beta   90.00000000
_cell_angle_gamma   135.21092229
_symmetry_Int_Tables_number   1
_chemical_formula_structural   ScAl
_chemical_formula_sum   'Sc2 Al2'
_cell_volume   85.67105582
_cell_formula_units_Z   2
loop_
 _symmetry_equiv_pos_site_id
 _symmetry_equiv_pos_as_xyz
  1  'x, y, z'
loop_
 _atom_site_type_symbol
 _atom_site_label
 _atom_site_symmetry_multiplicity
 _atom_site_fract_x
 _atom_site_fract_y
 _atom_site_fract_z
 _atom_site_occupancy
  Sc  Sc0  1  0.864681  0.135319  0.250000  1
  Sc  Sc1  1  0.135319  0.864681  0.750000  1
  Al  Al2  1  0.584505  0.415495  0.250000  1
  Al  Al3  1  0.415495  0.584505  0.750000  1
