# generated using pymatgen
data_Cs3BP2
_symmetry_space_group_name_H-M   'P 1'
_cell_length_a   7.00097548
_cell_length_b   7.00097548
_cell_length_c   9.91498563
_cell_angle_alpha   75.98825696
_cell_angle_beta   104.01174304
_cell_angle_gamma   90.81533108
_symmetry_Int_Tables_number   1
_chemical_formula_structural   Cs3BP2
_chemical_formula_sum   'Cs6 B2 P4'
_cell_volume   456.97201391
_cell_formula_units_Z   2
loop_
 _symmetry_equiv_pos_site_id
 _symmetry_equiv_pos_as_xyz
  1  'x, y, z'
loop_
 _atom_site_type_symbol
 _atom_site_label
 _atom_site_symmetry_multiplicity
 _atom_site_fract_x
 _atom_site_fract_y
 _atom_site_fract_z
 _atom_site_occupancy
  Cs  Cs0  1  0.342178  0.342178  0.250000  1
  Cs  Cs1  1  0.657822  0.657822  0.750000  1
  Cs  Cs2  1  0.743554  0.152952  0.021345  1
  Cs  Cs3  1  0.152952  0.743554  0.478655  1
  Cs  Cs4  1  0.256446  0.847048  0.978655  1
  Cs  Cs5  1  0.847048  0.256446  0.521345  1
  B  B6  1  0.712559  0.712559  0.250000  1
  B  B7  1  0.287441  0.287441  0.750000  1
  P  P8  1  0.597308  0.833557  0.350349  1
  P  P9  1  0.833557  0.597308  0.149651  1
  P  P10  1  0.166443  0.402692  0.850349  1
  P  P11  1  0.402692  0.166443  0.649651  1
