# generated using pymatgen
data_TiS2
_symmetry_space_group_name_H-M   'P 1'
_cell_length_a   6.94298812
_cell_length_b   6.94298812
_cell_length_c   6.94298812
_cell_angle_alpha   60.00000000
_cell_angle_beta   60.00000000
_cell_angle_gamma   60.00000000
_symmetry_Int_Tables_number   1
_chemical_formula_structural   TiS2
_chemical_formula_sum   'Ti4 S8'
_cell_volume   236.65967757
_cell_formula_units_Z   4
loop_
 _symmetry_equiv_pos_site_id
 _symmetry_equiv_pos_as_xyz
  1  'x, y, z'
loop_
 _atom_site_type_symbol
 _atom_site_label
 _atom_site_symmetry_multiplicity
 _atom_site_fract_x
 _atom_site_fract_y
 _atom_site_fract_z
 _atom_site_occupancy
  Ti  Ti0  1  0.625000  0.125000  0.125000  1
  Ti  Ti1  1  0.125000  0.125000  0.625000  1
  Ti  Ti2  1  0.125000  0.125000  0.125000  1
  Ti  Ti3  1  0.125000  0.625000  0.125000  1
  S  S4  1  0.877202  0.368393  0.877202  1
  S  S5  1  0.372798  0.372798  0.372798  1
  S  S6  1  0.881607  0.372798  0.372798  1
  S  S7  1  0.372798  0.372798  0.881607  1
  S  S8  1  0.372798  0.881607  0.372798  1
  S  S9  1  0.877202  0.877202  0.877202  1
  S  S10  1  0.877202  0.877202  0.368393  1
  S  S11  1  0.368393  0.877202  0.877202  1
