# generated using pymatgen
data_Hf(VH2)2
_symmetry_space_group_name_H-M   'P 1'
_cell_length_a   5.49184085
_cell_length_b   5.49184085
_cell_length_c   5.49184085
_cell_angle_alpha   121.11079049
_cell_angle_beta   121.11079049
_cell_angle_gamma   88.08658640
_symmetry_Int_Tables_number   1
_chemical_formula_structural   Hf(VH2)2
_chemical_formula_sum   'Hf2 V4 H8'
_cell_volume   115.08598616
_cell_formula_units_Z   2
loop_
 _symmetry_equiv_pos_site_id
 _symmetry_equiv_pos_as_xyz
  1  'x, y, z'
loop_
 _atom_site_type_symbol
 _atom_site_label
 _atom_site_symmetry_multiplicity
 _atom_site_fract_x
 _atom_site_fract_y
 _atom_site_fract_z
 _atom_site_occupancy
  Hf  Hf0  1  0.000000  0.000000  0.000000  1
  Hf  Hf1  1  0.750000  0.250000  0.500000  1
  V  V2  1  0.875000  0.625000  0.250000  1
  V  V3  1  0.375000  0.625000  0.750000  1
  V  V4  1  0.375000  0.625000  0.250000  1
  V  V5  1  0.375000  0.125000  0.750000  1
  H  H6  1  0.993482  0.629865  0.001073  1
  H  H7  1  0.007590  0.006518  0.636382  1
  H  H8  1  0.121208  0.257590  0.501073  1
  H  H9  1  0.370135  0.371208  0.363618  1
  H  H10  1  0.379865  0.878792  0.136382  1
  H  H11  1  0.628792  0.992410  0.998927  1
  H  H12  1  0.742410  0.243482  0.863618  1
  H  H13  1  0.756518  0.620135  0.498927  1
