# generated using pymatgen
data_TiPd
_symmetry_space_group_name_H-M   'P 1'
_cell_length_a   2.80085334
_cell_length_b   4.58811624
_cell_length_c   4.91535362
_cell_angle_alpha   90.00000000
_cell_angle_beta   90.00000000
_cell_angle_gamma   90.00000000
_symmetry_Int_Tables_number   1
_chemical_formula_structural   TiPd
_chemical_formula_sum   'Ti2 Pd2'
_cell_volume   63.16544326
_cell_formula_units_Z   2
loop_
 _symmetry_equiv_pos_site_id
 _symmetry_equiv_pos_as_xyz
  1  'x, y, z'
loop_
 _atom_site_type_symbol
 _atom_site_label
 _atom_site_symmetry_multiplicity
 _atom_site_fract_x
 _atom_site_fract_y
 _atom_site_fract_z
 _atom_site_occupancy
  Ti  Ti0  1  0.000000  0.250000  0.702085  1
  Ti  Ti1  1  0.000000  0.750000  0.297915  1
  Pd  Pd2  1  0.500000  0.250000  0.186917  1
  Pd  Pd3  1  0.500000  0.750000  0.813083  1
