# generated using pymatgen
data_RbCaI3
_symmetry_space_group_name_H-M   'P 1'
_cell_length_a   4.73312300
_cell_length_b   10.50906100
_cell_length_c   17.67061600
_cell_angle_alpha   90.00000000
_cell_angle_beta   90.00000000
_cell_angle_gamma   90.00000000
_symmetry_Int_Tables_number   1
_chemical_formula_structural   RbCaI3
_chemical_formula_sum   'Rb4 Ca4 I12'
_cell_volume   878.94842630
_cell_formula_units_Z   4
loop_
 _symmetry_equiv_pos_site_id
 _symmetry_equiv_pos_as_xyz
  1  'x, y, z'
loop_
 _atom_site_type_symbol
 _atom_site_label
 _atom_site_symmetry_multiplicity
 _atom_site_fract_x
 _atom_site_fract_y
 _atom_site_fract_z
 _atom_site_occupancy
  Rb  Rb0  1  0.750000  0.079010  0.326615  1
  Rb  Rb1  1  0.250000  0.920990  0.673385  1
  Rb  Rb2  1  0.750000  0.579010  0.173385  1
  Rb  Rb3  1  0.250000  0.420990  0.826615  1
  Ca  Ca4  1  0.250000  0.163199  0.058467  1
  Ca  Ca5  1  0.750000  0.836801  0.941533  1
  Ca  Ca6  1  0.250000  0.663199  0.441533  1
  Ca  Ca7  1  0.750000  0.336801  0.558467  1
  I  I8  1  0.750000  0.333248  0.996022  1
  I  I9  1  0.250000  0.666752  0.003978  1
  I  I10  1  0.750000  0.833248  0.503978  1
  I  I11  1  0.250000  0.166752  0.496022  1
  I  I12  1  0.250000  0.027266  0.895988  1
  I  I13  1  0.750000  0.972734  0.104012  1
  I  I14  1  0.250000  0.527266  0.604012  1
  I  I15  1  0.750000  0.472734  0.395988  1
  I  I16  1  0.250000  0.294411  0.213379  1
  I  I17  1  0.750000  0.705589  0.786621  1
  I  I18  1  0.250000  0.794411  0.286621  1
  I  I19  1  0.750000  0.205589  0.713379  1
