# generated using pymatgen
data_Li3FeSi2O7
_symmetry_space_group_name_H-M   'P 1'
_cell_length_a   8.62073724
_cell_length_b   8.62073724
_cell_length_c   13.04529851
_cell_angle_alpha   90.00000000
_cell_angle_beta   90.00000000
_cell_angle_gamma   120.00000000
_symmetry_Int_Tables_number   1
_chemical_formula_structural   Li3FeSi2O7
_chemical_formula_sum   'Li18 Fe6 Si12 O42'
_cell_volume   839.60200874
_cell_formula_units_Z   6
loop_
 _symmetry_equiv_pos_site_id
 _symmetry_equiv_pos_as_xyz
  1  'x, y, z'
loop_
 _atom_site_type_symbol
 _atom_site_label
 _atom_site_symmetry_multiplicity
 _atom_site_fract_x
 _atom_site_fract_y
 _atom_site_fract_z
 _atom_site_occupancy
  Li  Li0  1  0.024757  0.690733  0.897431  1
  Li  Li1  1  0.024032  0.691539  0.566490  1
  Li  Li2  1  0.333333  0.666667  0.218079  1
  Li  Li3  1  0.333333  0.666667  0.732899  1
  Li  Li4  1  0.000000  0.000000  0.461276  1
  Li  Li5  1  0.000000  0.000000  0.961276  1
  Li  Li6  1  0.308461  0.332494  0.566490  1
  Li  Li7  1  0.309267  0.334024  0.897431  1
  Li  Li8  1  0.665976  0.975243  0.897431  1
  Li  Li9  1  0.667506  0.975968  0.566490  1
  Li  Li10  1  0.332494  0.024032  0.066490  1
  Li  Li11  1  0.334024  0.024757  0.397431  1
  Li  Li12  1  0.690733  0.665976  0.397431  1
  Li  Li13  1  0.691539  0.667506  0.066490  1
  Li  Li14  1  0.666667  0.333333  0.232899  1
  Li  Li15  1  0.666667  0.333333  0.718079  1
  Li  Li16  1  0.975968  0.308461  0.066490  1
  Li  Li17  1  0.975243  0.309267  0.397431  1
  Fe  Fe18  1  0.000000  0.000000  0.229916  1
  Fe  Fe19  1  0.000000  0.000000  0.729916  1
  Fe  Fe20  1  0.333333  0.666667  0.508740  1
  Fe  Fe21  1  0.333333  0.666667  0.956072  1
  Fe  Fe22  1  0.666667  0.333333  0.456072  1
  Fe  Fe23  1  0.666667  0.333333  0.008740  1
  Si  Si24  1  0.026370  0.674740  0.345286  1
  Si  Si25  1  0.024250  0.673615  0.120594  1
  Si  Si26  1  0.326385  0.350635  0.120594  1
  Si  Si27  1  0.325260  0.351630  0.345286  1
  Si  Si28  1  0.649365  0.975750  0.120594  1
  Si  Si29  1  0.648370  0.973630  0.345286  1
  Si  Si30  1  0.351630  0.026370  0.845286  1
  Si  Si31  1  0.350635  0.024250  0.620594  1
  Si  Si32  1  0.674740  0.648370  0.845286  1
  Si  Si33  1  0.673615  0.649365  0.620594  1
  Si  Si34  1  0.975750  0.326385  0.620594  1
  Si  Si35  1  0.973630  0.325260  0.845286  1
  O  O36  1  0.132835  0.929848  0.841455  1
  O  O37  1  0.132552  0.926380  0.626875  1
  O  O38  1  0.130144  0.696161  0.232769  1
  O  O39  1  0.187859  0.756664  0.035849  1
  O  O40  1  0.188353  0.758320  0.430857  1
  O  O41  1  0.118945  0.539370  0.605613  1
  O  O42  1  0.118737  0.537952  0.859884  1
  O  O43  1  0.070152  0.202987  0.841455  1
  O  O44  1  0.419216  0.881263  0.859884  1
  O  O45  1  0.073620  0.206171  0.626875  1
  O  O46  1  0.420425  0.881055  0.605613  1
  O  O47  1  0.243336  0.431195  0.035849  1
  O  O48  1  0.241680  0.430033  0.430857  1
  O  O49  1  0.303839  0.433983  0.232769  1
  O  O50  1  0.202987  0.132835  0.341455  1
  O  O51  1  0.566017  0.869856  0.232769  1
  O  O52  1  0.206171  0.132552  0.126875  1
  O  O53  1  0.569967  0.811647  0.430857  1
  O  O54  1  0.568805  0.812141  0.035849  1
  O  O55  1  0.460630  0.579575  0.605613  1
  O  O56  1  0.462048  0.580784  0.859884  1
  O  O57  1  0.537952  0.419216  0.359884  1
  O  O58  1  0.539370  0.420425  0.105613  1
  O  O59  1  0.431195  0.187859  0.535849  1
  O  O60  1  0.430033  0.188353  0.930857  1
  O  O61  1  0.793829  0.867448  0.626875  1
  O  O62  1  0.433983  0.130144  0.732769  1
  O  O63  1  0.797013  0.867165  0.841455  1
  O  O64  1  0.696161  0.566017  0.732769  1
  O  O65  1  0.758320  0.569967  0.930857  1
  O  O66  1  0.756664  0.568805  0.535849  1
  O  O67  1  0.579575  0.118945  0.105613  1
  O  O68  1  0.926380  0.793829  0.126875  1
  O  O69  1  0.580784  0.118737  0.359884  1
  O  O70  1  0.929848  0.797013  0.341455  1
  O  O71  1  0.881263  0.462048  0.359884  1
  O  O72  1  0.881055  0.460630  0.105613  1
  O  O73  1  0.811647  0.241680  0.930857  1
  O  O74  1  0.812141  0.243336  0.535849  1
  O  O75  1  0.869856  0.303839  0.732769  1
  O  O76  1  0.867448  0.073620  0.126875  1
  O  O77  1  0.867165  0.070152  0.341455  1
