# generated using pymatgen
data_HfAs
_symmetry_space_group_name_H-M   'P 1'
_cell_length_a   3.80069075
_cell_length_b   3.80069075
_cell_length_c   12.80516787
_cell_angle_alpha   90.00000000
_cell_angle_beta   90.00000000
_cell_angle_gamma   120.00000000
_symmetry_Int_Tables_number   1
_chemical_formula_structural   HfAs
_chemical_formula_sum   'Hf4 As4'
_cell_volume   160.19205617
_cell_formula_units_Z   4
loop_
 _symmetry_equiv_pos_site_id
 _symmetry_equiv_pos_as_xyz
  1  'x, y, z'
loop_
 _atom_site_type_symbol
 _atom_site_label
 _atom_site_symmetry_multiplicity
 _atom_site_fract_x
 _atom_site_fract_y
 _atom_site_fract_z
 _atom_site_occupancy
  Hf  Hf0  1  0.333333  0.666667  0.383313  1
  Hf  Hf1  1  0.666667  0.333333  0.883313  1
  Hf  Hf2  1  0.666667  0.333333  0.616687  1
  Hf  Hf3  1  0.333333  0.666667  0.116687  1
  As  As4  1  0.666667  0.333333  0.250000  1
  As  As5  1  0.333333  0.666667  0.750000  1
  As  As6  1  0.000000  0.000000  0.500000  1
  As  As7  1  0.000000  0.000000  0.000000  1
