# generated using pymatgen
data_RbCaCl3
_symmetry_space_group_name_H-M   'P 1'
_cell_length_a   5.42594812
_cell_length_b   5.42594812
_cell_length_c   5.42425595
_cell_angle_alpha   89.93154208
_cell_angle_beta   90.06845792
_cell_angle_gamma   89.94798290
_symmetry_Int_Tables_number   1
_chemical_formula_structural   RbCaCl3
_chemical_formula_sum   'Rb1 Ca1 Cl3'
_cell_volume   159.69475339
_cell_formula_units_Z   1
loop_
 _symmetry_equiv_pos_site_id
 _symmetry_equiv_pos_as_xyz
  1  'x, y, z'
loop_
 _atom_site_type_symbol
 _atom_site_label
 _atom_site_symmetry_multiplicity
 _atom_site_fract_x
 _atom_site_fract_y
 _atom_site_fract_z
 _atom_site_occupancy
  Rb  Rb0  1  0.003013  0.996987  0.003428  1
  Ca  Ca1  1  0.503302  0.496698  0.514701  1
  Cl  Cl2  1  0.505363  0.998307  0.515501  1
  Cl  Cl3  1  0.494536  0.505464  0.014497  1
  Cl  Cl4  1  0.001693  0.494637  0.515501  1
