# generated using pymatgen
data_K2Pd3S4
_symmetry_space_group_name_H-M   'P 1'
_cell_length_a   14.17320423
_cell_length_b   13.44943159
_cell_length_c   6.25856977
_cell_angle_alpha   83.45902813
_cell_angle_beta   70.51980017
_cell_angle_gamma   26.02117170
_symmetry_Int_Tables_number   1
_chemical_formula_structural   K2Pd3S4
_chemical_formula_sum   'K4 Pd6 S8'
_cell_volume   440.85072085
_cell_formula_units_Z   2
loop_
 _symmetry_equiv_pos_site_id
 _symmetry_equiv_pos_as_xyz
  1  'x, y, z'
loop_
 _atom_site_type_symbol
 _atom_site_label
 _atom_site_symmetry_multiplicity
 _atom_site_fract_x
 _atom_site_fract_y
 _atom_site_fract_z
 _atom_site_occupancy
  K  K0  1  0.922358  0.922358  0.077642  1
  K  K1  1  0.172358  0.172358  0.327642  1
  K  K2  1  0.327642  0.327642  0.172358  1
  K  K3  1  0.077642  0.077642  0.922358  1
  Pd  Pd4  1  0.749120  0.749120  0.250880  1
  Pd  Pd5  1  0.999120  0.999120  0.500880  1
  Pd  Pd6  1  0.500880  0.500880  0.999120  1
  Pd  Pd7  1  0.500000  0.500000  0.500000  1
  Pd  Pd8  1  0.750000  0.750000  0.750000  1
  Pd  Pd9  1  0.250880  0.250880  0.749120  1
  S  S10  1  0.280717  0.601376  0.387417  1
  S  S11  1  0.648624  0.969283  0.519510  1
  S  S12  1  0.862583  0.519510  0.969283  1
  S  S13  1  0.519510  0.862583  0.648624  1
  S  S14  1  0.730490  0.387417  0.601376  1
  S  S15  1  0.387417  0.730490  0.280717  1
  S  S16  1  0.601376  0.280717  0.730490  1
  S  S17  1  0.969283  0.648624  0.862583  1
