# generated using pymatgen
data_Zr3As2
_symmetry_space_group_name_H-M   'P 1'
_cell_length_a   3.78946955
_cell_length_b   10.18481169
_cell_length_c   10.63463444
_cell_angle_alpha   90.00000000
_cell_angle_beta   90.00000000
_cell_angle_gamma   90.00000000
_symmetry_Int_Tables_number   1
_chemical_formula_structural   Zr3As2
_chemical_formula_sum   'Zr12 As8'
_cell_volume   410.44407536
_cell_formula_units_Z   4
loop_
 _symmetry_equiv_pos_site_id
 _symmetry_equiv_pos_as_xyz
  1  'x, y, z'
loop_
 _atom_site_type_symbol
 _atom_site_label
 _atom_site_symmetry_multiplicity
 _atom_site_fract_x
 _atom_site_fract_y
 _atom_site_fract_z
 _atom_site_occupancy
  Zr  Zr0  1  0.750000  0.205369  0.214402  1
  Zr  Zr1  1  0.250000  0.705369  0.285598  1
  Zr  Zr2  1  0.750000  0.294631  0.714402  1
  Zr  Zr3  1  0.250000  0.794631  0.785598  1
  Zr  Zr4  1  0.250000  0.432659  0.123885  1
  Zr  Zr5  1  0.750000  0.932659  0.376115  1
  Zr  Zr6  1  0.250000  0.067341  0.623885  1
  Zr  Zr7  1  0.750000  0.567341  0.876115  1
  Zr  Zr8  1  0.750000  0.875523  0.045016  1
  Zr  Zr9  1  0.250000  0.375523  0.454984  1
  Zr  Zr10  1  0.750000  0.624477  0.545016  1
  Zr  Zr11  1  0.250000  0.124477  0.954984  1
  As  As12  1  0.750000  0.500937  0.305168  1
  As  As13  1  0.250000  0.000937  0.194832  1
  As  As14  1  0.250000  0.499063  0.694832  1
  As  As15  1  0.750000  0.999063  0.805168  1
  As  As16  1  0.750000  0.319761  0.971275  1
  As  As17  1  0.250000  0.819761  0.528725  1
  As  As18  1  0.750000  0.180239  0.471275  1
  As  As19  1  0.250000  0.680239  0.028725  1
