# generated using pymatgen
data_RbCaBr3
_symmetry_space_group_name_H-M   'P 1'
_cell_length_a   5.74307095
_cell_length_b   5.74307095
_cell_length_c   5.74042617
_cell_angle_alpha   89.93769416
_cell_angle_beta   90.06230584
_cell_angle_gamma   89.97393318
_symmetry_Int_Tables_number   1
_chemical_formula_structural   RbCaBr3
_chemical_formula_sum   'Rb1 Ca1 Br3'
_cell_volume   189.33545140
_cell_formula_units_Z   1
loop_
 _symmetry_equiv_pos_site_id
 _symmetry_equiv_pos_as_xyz
  1  'x, y, z'
loop_
 _atom_site_type_symbol
 _atom_site_label
 _atom_site_symmetry_multiplicity
 _atom_site_fract_x
 _atom_site_fract_y
 _atom_site_fract_z
 _atom_site_occupancy
  Rb  Rb0  1  0.001636  0.998364  0.001898  1
  Ca  Ca1  1  0.504852  0.495148  0.516987  1
  Br  Br2  1  0.504395  0.998461  0.514181  1
  Br  Br3  1  0.492299  0.507701  0.016043  1
  Br  Br4  1  0.001539  0.495605  0.514181  1
