# generated using pymatgen
data_K2PtC2
_symmetry_space_group_name_H-M   'P 1'
_cell_length_a   5.18185076
_cell_length_b   5.18185076
_cell_length_c   5.24360429
_cell_angle_alpha   90.00000000
_cell_angle_beta   90.00000000
_cell_angle_gamma   120.00000000
_symmetry_Int_Tables_number   1
_chemical_formula_structural   K2PtC2
_chemical_formula_sum   'K2 Pt1 C2'
_cell_volume   121.93555082
_cell_formula_units_Z   1
loop_
 _symmetry_equiv_pos_site_id
 _symmetry_equiv_pos_as_xyz
  1  'x, y, z'
loop_
 _atom_site_type_symbol
 _atom_site_label
 _atom_site_symmetry_multiplicity
 _atom_site_fract_x
 _atom_site_fract_y
 _atom_site_fract_z
 _atom_site_occupancy
  K  K0  1  0.333333  0.666667  0.275457  1
  K  K1  1  0.666667  0.333333  0.724543  1
  Pt  Pt2  1  0.000000  0.000000  0.000000  1
  C  C3  1  0.000000  0.000000  0.378221  1
  C  C4  1  0.000000  0.000000  0.621779  1
