# generated using pymatgen
data_CuClO2
_symmetry_space_group_name_H-M   'P 1'
_cell_length_a   6.53126454
_cell_length_b   6.53126454
_cell_length_c   6.34156308
_cell_angle_alpha   70.53480404
_cell_angle_beta   109.46519596
_cell_angle_gamma   147.30327974
_symmetry_Int_Tables_number   1
_chemical_formula_structural   CuClO2
_chemical_formula_sum   'Cu2 Cl2 O4'
_cell_volume   137.03526607
_cell_formula_units_Z   2
loop_
 _symmetry_equiv_pos_site_id
 _symmetry_equiv_pos_as_xyz
  1  'x, y, z'
loop_
 _atom_site_type_symbol
 _atom_site_label
 _atom_site_symmetry_multiplicity
 _atom_site_fract_x
 _atom_site_fract_y
 _atom_site_fract_z
 _atom_site_occupancy
  Cu  Cu0  1  0.331589  0.668411  0.263773  1
  Cu  Cu1  1  0.668411  0.331589  0.736227  1
  Cl  Cl2  1  0.281143  0.718857  0.773265  1
  Cl  Cl3  1  0.718857  0.281143  0.226735  1
  O  O4  1  0.856103  0.795520  0.685780  1
  O  O5  1  0.795520  0.856103  0.314220  1
  O  O6  1  0.143897  0.204480  0.314220  1
  O  O7  1  0.204480  0.143897  0.685780  1
