# generated using pymatgen
data_K2GeSe3
_symmetry_space_group_name_H-M   'P 1'
_cell_length_a   6.94493273
_cell_length_b   7.60226291
_cell_length_c   8.81444420
_cell_angle_alpha   75.91869698
_cell_angle_beta   73.20327608
_cell_angle_gamma   66.75587083
_symmetry_Int_Tables_number   1
_chemical_formula_structural   K2GeSe3
_chemical_formula_sum   'K4 Ge2 Se6'
_cell_volume   404.91725468
_cell_formula_units_Z   2
loop_
 _symmetry_equiv_pos_site_id
 _symmetry_equiv_pos_as_xyz
  1  'x, y, z'
loop_
 _atom_site_type_symbol
 _atom_site_label
 _atom_site_symmetry_multiplicity
 _atom_site_fract_x
 _atom_site_fract_y
 _atom_site_fract_z
 _atom_site_occupancy
  K  K0  1  0.387219  0.799401  0.893250  1
  K  K1  1  0.612781  0.200599  0.106750  1
  K  K2  1  0.154330  0.464712  0.677999  1
  K  K3  1  0.845670  0.535288  0.322001  1
  Ge  Ge4  1  0.861179  0.058254  0.681947  1
  Ge  Ge5  1  0.138821  0.941746  0.318053  1
  Se  Se6  1  0.665856  0.381192  0.716601  1
  Se  Se7  1  0.334144  0.618808  0.283399  1
  Se  Se8  1  0.866904  0.818859  0.905919  1
  Se  Se9  1  0.133096  0.181141  0.094081  1
  Se  Se10  1  0.225616  0.034977  0.534847  1
  Se  Se11  1  0.774384  0.965023  0.465153  1
