# generated using pymatgen
data_AgPdO2
_symmetry_space_group_name_H-M   'P 1'
_cell_length_a   6.29627000
_cell_length_b   3.08007000
_cell_length_c   6.45184994
_cell_angle_alpha   90.00000000
_cell_angle_beta   117.68155507
_cell_angle_gamma   90.00000000
_symmetry_Int_Tables_number   1
_chemical_formula_structural   AgPdO2
_chemical_formula_sum   'Ag2 Pd2 O4'
_cell_volume   110.79953875
_cell_formula_units_Z   2
loop_
 _symmetry_equiv_pos_site_id
 _symmetry_equiv_pos_as_xyz
  1  'x, y, z'
loop_
 _atom_site_type_symbol
 _atom_site_label
 _atom_site_symmetry_multiplicity
 _atom_site_fract_x
 _atom_site_fract_y
 _atom_site_fract_z
 _atom_site_occupancy
  Ag  Ag0  1  0.000000  0.000000  0.000000  1
  Ag  Ag1  1  0.000000  0.000000  0.500000  1
  Pd  Pd2  1  0.500000  0.500000  0.500000  1
  Pd  Pd3  1  0.500000  0.000000  0.000000  1
  O  O4  1  0.594650  0.500000  0.234060  1
  O  O5  1  0.260090  0.000000  0.360570  1
  O  O6  1  0.739910  0.000000  0.639430  1
  O  O7  1  0.405350  0.500000  0.765940  1
