# generated using pymatgen
data_LuOs3
_symmetry_space_group_name_H-M   'P 1'
_cell_length_a   5.72632447
_cell_length_b   5.72632447
_cell_length_c   4.59479913
_cell_angle_alpha   90.00000000
_cell_angle_beta   90.00000000
_cell_angle_gamma   120.00000000
_symmetry_Int_Tables_number   1
_chemical_formula_structural   LuOs3
_chemical_formula_sum   'Lu2 Os6'
_cell_volume   130.48153800
_cell_formula_units_Z   2
loop_
 _symmetry_equiv_pos_site_id
 _symmetry_equiv_pos_as_xyz
  1  'x, y, z'
loop_
 _atom_site_type_symbol
 _atom_site_label
 _atom_site_symmetry_multiplicity
 _atom_site_fract_x
 _atom_site_fract_y
 _atom_site_fract_z
 _atom_site_occupancy
  Lu  Lu0  1  0.333333  0.666667  0.750000  1
  Lu  Lu1  1  0.666667  0.333333  0.250000  1
  Os  Os2  1  0.162713  0.325427  0.250000  1
  Os  Os3  1  0.674573  0.837287  0.250000  1
  Os  Os4  1  0.162713  0.837287  0.250000  1
  Os  Os5  1  0.837287  0.674573  0.750000  1
  Os  Os6  1  0.325427  0.162713  0.750000  1
  Os  Os7  1  0.837287  0.162713  0.750000  1
