# generated using pymatgen
data_CdAuO2
_symmetry_space_group_name_H-M   'P 1'
_cell_length_a   4.13686000
_cell_length_b   5.60004018
_cell_length_c   6.11016025
_cell_angle_alpha   115.93008528
_cell_angle_beta   106.41467702
_cell_angle_gamma   86.88551701
_symmetry_Int_Tables_number   1
_chemical_formula_structural   CdAuO2
_chemical_formula_sum   'Cd2 Au2 O4'
_cell_volume   121.71877598
_cell_formula_units_Z   2
loop_
 _symmetry_equiv_pos_site_id
 _symmetry_equiv_pos_as_xyz
  1  'x, y, z'
loop_
 _atom_site_type_symbol
 _atom_site_label
 _atom_site_symmetry_multiplicity
 _atom_site_fract_x
 _atom_site_fract_y
 _atom_site_fract_z
 _atom_site_occupancy
  Cd  Cd0  1  0.274540  0.270360  0.529290  1
  Cd  Cd1  1  0.725460  0.729640  0.470710  1
  Au  Au2  1  0.500000  0.000000  0.000000  1
  Au  Au3  1  0.000000  0.500000  0.000000  1
  O  O4  1  0.677750  0.161990  0.808550  1
  O  O5  1  0.322250  0.838010  0.191450  1
  O  O6  1  0.719000  0.281540  0.360090  1
  O  O7  1  0.281000  0.718460  0.639910  1
