# generated using pymatgen
data_KGeCl3
_symmetry_space_group_name_H-M   'P 1'
_cell_length_a   5.35616157
_cell_length_b   5.35616157
_cell_length_c   5.33510817
_cell_angle_alpha   89.08383004
_cell_angle_beta   90.91616996
_cell_angle_gamma   90.84584541
_symmetry_Int_Tables_number   1
_chemical_formula_structural   KGeCl3
_chemical_formula_sum   'K1 Ge1 Cl3'
_cell_volume   153.00083305
_cell_formula_units_Z   1
loop_
 _symmetry_equiv_pos_site_id
 _symmetry_equiv_pos_as_xyz
  1  'x, y, z'
loop_
 _atom_site_type_symbol
 _atom_site_label
 _atom_site_symmetry_multiplicity
 _atom_site_fract_x
 _atom_site_fract_y
 _atom_site_fract_z
 _atom_site_occupancy
  K  K0  1  0.003336  0.996664  0.998881  1
  Ge  Ge1  1  0.521184  0.478816  0.467175  1
  Cl  Cl2  1  0.975690  0.494905  0.481393  1
  Cl  Cl3  1  0.499013  0.500987  0.007507  1
  Cl  Cl4  1  0.505095  0.024310  0.481393  1
