# generated using pymatgen
data_RbMg3
_symmetry_space_group_name_H-M   'P 1'
_cell_length_a   8.49023596
_cell_length_b   8.49023596
_cell_length_c   5.10763946
_cell_angle_alpha   90.00000000
_cell_angle_beta   90.00000000
_cell_angle_gamma   120.00000000
_symmetry_Int_Tables_number   1
_chemical_formula_structural   RbMg3
_chemical_formula_sum   'Rb2 Mg6'
_cell_volume   318.85291035
_cell_formula_units_Z   2
loop_
 _symmetry_equiv_pos_site_id
 _symmetry_equiv_pos_as_xyz
  1  'x, y, z'
loop_
 _atom_site_type_symbol
 _atom_site_label
 _atom_site_symmetry_multiplicity
 _atom_site_fract_x
 _atom_site_fract_y
 _atom_site_fract_z
 _atom_site_occupancy
  Rb  Rb0  1  0.666667  0.333333  0.250000  1
  Rb  Rb1  1  0.333333  0.666667  0.750000  1
  Mg  Mg2  1  0.123524  0.247049  0.250000  1
  Mg  Mg3  1  0.752951  0.876476  0.250000  1
  Mg  Mg4  1  0.123524  0.876476  0.250000  1
  Mg  Mg5  1  0.876476  0.123524  0.750000  1
  Mg  Mg6  1  0.247049  0.123524  0.750000  1
  Mg  Mg7  1  0.876476  0.752951  0.750000  1
