# generated using pymatgen
data_ZnCdTe2
_symmetry_space_group_name_H-M   'P 1'
_cell_length_a   7.81632021
_cell_length_b   7.81632021
_cell_length_c   7.81632021
_cell_angle_alpha   131.41469821
_cell_angle_beta   131.41469821
_cell_angle_gamma   71.15503330
_symmetry_Int_Tables_number   1
_chemical_formula_structural   ZnCdTe2
_chemical_formula_sum   'Zn2 Cd2 Te4'
_cell_volume   262.93992973
_cell_formula_units_Z   2
loop_
 _symmetry_equiv_pos_site_id
 _symmetry_equiv_pos_as_xyz
  1  'x, y, z'
loop_
 _atom_site_type_symbol
 _atom_site_label
 _atom_site_symmetry_multiplicity
 _atom_site_fract_x
 _atom_site_fract_y
 _atom_site_fract_z
 _atom_site_occupancy
  Zn  Zn0  1  0.750000  0.250000  0.500000  1
  Zn  Zn1  1  0.000000  0.000000  0.000000  1
  Cd  Cd2  1  0.250000  0.750000  0.500000  1
  Cd  Cd3  1  0.500000  0.500000  0.000000  1
  Te  Te4  1  0.101586  0.125000  0.476586  1
  Te  Te5  1  0.648414  0.625000  0.523414  1
  Te  Te6  1  0.375000  0.898414  0.023414  1
  Te  Te7  1  0.875000  0.351586  0.976586  1
