# generated using pymatgen
data_Pr(CoB)4
_symmetry_space_group_name_H-M   'P 1'
_cell_length_a   7.08233485
_cell_length_b   7.08233485
_cell_length_c   3.78792091
_cell_angle_alpha   90.00000000
_cell_angle_beta   90.00000000
_cell_angle_gamma   90.00000000
_symmetry_Int_Tables_number   1
_chemical_formula_structural   Pr(CoB)4
_chemical_formula_sum   'Pr2 Co8 B8'
_cell_volume   190.00009360
_cell_formula_units_Z   2
loop_
 _symmetry_equiv_pos_site_id
 _symmetry_equiv_pos_as_xyz
  1  'x, y, z'
loop_
 _atom_site_type_symbol
 _atom_site_label
 _atom_site_symmetry_multiplicity
 _atom_site_fract_x
 _atom_site_fract_y
 _atom_site_fract_z
 _atom_site_occupancy
  Pr  Pr0  1  0.000000  0.000000  0.000000  1
  Pr  Pr1  1  0.500000  0.500000  0.500000  1
  Co  Co2  1  0.857523  0.385179  0.105673  1
  Co  Co3  1  0.142477  0.614821  0.105673  1
  Co  Co4  1  0.885179  0.642477  0.605673  1
  Co  Co5  1  0.114821  0.357523  0.605673  1
  Co  Co6  1  0.642477  0.114821  0.394327  1
  Co  Co7  1  0.357523  0.885179  0.394327  1
  Co  Co8  1  0.614821  0.857523  0.894327  1
  Co  Co9  1  0.385179  0.142477  0.894327  1
  B  B10  1  0.338015  0.796183  0.896779  1
  B  B11  1  0.661985  0.203817  0.896779  1
  B  B12  1  0.296183  0.161985  0.396779  1
  B  B13  1  0.703817  0.838015  0.396779  1
  B  B14  1  0.161985  0.703817  0.603221  1
  B  B15  1  0.838015  0.296183  0.603221  1
  B  B16  1  0.203817  0.338015  0.103221  1
  B  B17  1  0.796183  0.661985  0.103221  1
