# generated using pymatgen
data_CsPdBr3
_symmetry_space_group_name_H-M   'P 1'
_cell_length_a   5.33221476
_cell_length_b   5.33221476
_cell_length_c   5.33332006
_cell_angle_alpha   90.00000000
_cell_angle_beta   90.00000000
_cell_angle_gamma   90.02072619
_symmetry_Int_Tables_number   1
_chemical_formula_structural   CsPdBr3
_chemical_formula_sum   'Cs1 Pd1 Br3'
_cell_volume   151.63968860
_cell_formula_units_Z   1
loop_
 _symmetry_equiv_pos_site_id
 _symmetry_equiv_pos_as_xyz
  1  'x, y, z'
loop_
 _atom_site_type_symbol
 _atom_site_label
 _atom_site_symmetry_multiplicity
 _atom_site_fract_x
 _atom_site_fract_y
 _atom_site_fract_z
 _atom_site_occupancy
  Cs  Cs0  1  0.999047  0.999047  0.500000  1
  Pd  Pd1  1  0.505562  0.505562  0.000000  1
  Br  Br2  1  0.503174  0.503174  0.500000  1
  Br  Br3  1  0.498710  0.006245  0.000000  1
  Br  Br4  1  0.006245  0.498710  0.000000  1
