# generated using pymatgen
data_LiAgO2
_symmetry_space_group_name_H-M   'P 1'
_cell_length_a   5.26533288
_cell_length_b   3.14784995
_cell_length_c   6.19423677
_cell_angle_alpha   90.00000000
_cell_angle_beta   92.20721558
_cell_angle_gamma   90.00000000
_symmetry_Int_Tables_number   1
_chemical_formula_structural   LiAgO2
_chemical_formula_sum   'Li2 Ag2 O4'
_cell_volume   102.59006938
_cell_formula_units_Z   2
loop_
 _symmetry_equiv_pos_site_id
 _symmetry_equiv_pos_as_xyz
  1  'x, y, z'
loop_
 _atom_site_type_symbol
 _atom_site_label
 _atom_site_symmetry_multiplicity
 _atom_site_fract_x
 _atom_site_fract_y
 _atom_site_fract_z
 _atom_site_occupancy
  Li  Li0  1  0.974744  0.000000  0.768798  1
  Li  Li1  1  0.025256  0.000000  0.231202  1
  Ag  Ag2  1  0.500000  0.500000  0.000000  1
  Ag  Ag3  1  0.500000  0.500000  0.500000  1
  O  O4  1  0.907413  0.500000  0.587191  1
  O  O5  1  0.252298  0.000000  0.984841  1
  O  O6  1  0.747702  0.000000  0.015159  1
  O  O7  1  0.092587  0.500000  0.412809  1
