# generated using pymatgen
data_K3Y
_symmetry_space_group_name_H-M   'P 1'
_cell_length_a   8.58110840
_cell_length_b   8.58110840
_cell_length_c   7.09581711
_cell_angle_alpha   90.00000000
_cell_angle_beta   90.00000000
_cell_angle_gamma   120.00000000
_symmetry_Int_Tables_number   1
_chemical_formula_structural   K3Y
_chemical_formula_sum   'K6 Y2'
_cell_volume   452.50128997
_cell_formula_units_Z   2
loop_
 _symmetry_equiv_pos_site_id
 _symmetry_equiv_pos_as_xyz
  1  'x, y, z'
loop_
 _atom_site_type_symbol
 _atom_site_label
 _atom_site_symmetry_multiplicity
 _atom_site_fract_x
 _atom_site_fract_y
 _atom_site_fract_z
 _atom_site_occupancy
  K  K0  1  0.171994  0.343987  0.250000  1
  K  K1  1  0.656013  0.828006  0.250000  1
  K  K2  1  0.171994  0.828006  0.250000  1
  K  K3  1  0.828006  0.656013  0.750000  1
  K  K4  1  0.343987  0.171994  0.750000  1
  K  K5  1  0.828006  0.171994  0.750000  1
  Y  Y6  1  0.333333  0.666667  0.750000  1
  Y  Y7  1  0.666667  0.333333  0.250000  1
