# generated using pymatgen
data_MgNi
_symmetry_space_group_name_H-M   'P 1'
_cell_length_a   4.95635248
_cell_length_b   4.95635248
_cell_length_c   4.95635248
_cell_angle_alpha   60.66388160
_cell_angle_beta   60.66388160
_cell_angle_gamma   60.66388160
_symmetry_Int_Tables_number   1
_chemical_formula_structural   MgNi
_chemical_formula_sum   'Mg3 Ni3'
_cell_volume   87.38406634
_cell_formula_units_Z   3
loop_
 _symmetry_equiv_pos_site_id
 _symmetry_equiv_pos_as_xyz
  1  'x, y, z'
loop_
 _atom_site_type_symbol
 _atom_site_label
 _atom_site_symmetry_multiplicity
 _atom_site_fract_x
 _atom_site_fract_y
 _atom_site_fract_z
 _atom_site_occupancy
  Mg  Mg0  1  0.500000  0.500000  0.500000  1
  Mg  Mg1  1  0.118943  0.118943  0.118943  1
  Mg  Mg2  1  0.881057  0.881057  0.881057  1
  Ni  Ni3  1  0.500000  0.000000  0.500000  1
  Ni  Ni4  1  1.000000  0.500000  0.500000  1
  Ni  Ni5  1  0.500000  0.500000  0.000000  1
