# generated using pymatgen
data_HfTlCuSe3
_symmetry_space_group_name_H-M   'P 1'
_cell_length_a   7.69899773
_cell_length_b   7.69899773
_cell_length_c   10.14654408
_cell_angle_alpha   90.00000000
_cell_angle_beta   90.00000000
_cell_angle_gamma   151.01756747
_symmetry_Int_Tables_number   1
_chemical_formula_structural   HfTlCuSe3
_chemical_formula_sum   'Hf2 Tl2 Cu2 Se6'
_cell_volume   291.41872008
_cell_formula_units_Z   2
loop_
 _symmetry_equiv_pos_site_id
 _symmetry_equiv_pos_as_xyz
  1  'x, y, z'
loop_
 _atom_site_type_symbol
 _atom_site_label
 _atom_site_symmetry_multiplicity
 _atom_site_fract_x
 _atom_site_fract_y
 _atom_site_fract_z
 _atom_site_occupancy
  Hf  Hf0  1  0.000000  0.000000  0.500000  1
  Hf  Hf1  1  0.000000  0.000000  0.000000  1
  Tl  Tl2  1  0.751868  0.248132  0.250000  1
  Tl  Tl3  1  0.248132  0.751868  0.750000  1
  Cu  Cu4  1  0.535496  0.464504  0.750000  1
  Cu  Cu5  1  0.464504  0.535496  0.250000  1
  Se  Se6  1  0.376482  0.623518  0.048766  1
  Se  Se7  1  0.623518  0.376482  0.951234  1
  Se  Se8  1  0.623518  0.376482  0.548766  1
  Se  Se9  1  0.376482  0.623518  0.451234  1
  Se  Se10  1  0.933433  0.066567  0.750000  1
  Se  Se11  1  0.066567  0.933433  0.250000  1
