# generated using pymatgen
data_Ho2S3
_symmetry_space_group_name_H-M   'P 1'
_cell_length_a   7.31652406
_cell_length_b   7.31652406
_cell_length_c   7.31652406
_cell_angle_alpha   56.00861022
_cell_angle_beta   56.00861022
_cell_angle_gamma   56.00861022
_symmetry_Int_Tables_number   1
_chemical_formula_structural   Ho2S3
_chemical_formula_sum   'Ho4 S6'
_cell_volume   251.34063666
_cell_formula_units_Z   2
loop_
 _symmetry_equiv_pos_site_id
 _symmetry_equiv_pos_as_xyz
  1  'x, y, z'
loop_
 _atom_site_type_symbol
 _atom_site_label
 _atom_site_symmetry_multiplicity
 _atom_site_fract_x
 _atom_site_fract_y
 _atom_site_fract_z
 _atom_site_occupancy
  Ho  Ho0  1  0.649812  0.649812  0.649812  1
  Ho  Ho1  1  0.850188  0.850188  0.850188  1
  Ho  Ho2  1  0.149812  0.149812  0.149812  1
  Ho  Ho3  1  0.350188  0.350188  0.350188  1
  S  S4  1  0.948608  0.250000  0.551392  1
  S  S5  1  0.250000  0.551392  0.948608  1
  S  S6  1  0.551392  0.948608  0.250000  1
  S  S7  1  0.448608  0.051392  0.750000  1
  S  S8  1  0.750000  0.448608  0.051392  1
  S  S9  1  0.051392  0.750000  0.448608  1
