# generated using pymatgen
data_AgNO2
_symmetry_space_group_name_H-M   'P 1'
_cell_length_a   4.62195447
_cell_length_b   4.62195447
_cell_length_c   7.56114097
_cell_angle_alpha   66.08049243
_cell_angle_beta   113.91950757
_cell_angle_gamma   113.54373377
_symmetry_Int_Tables_number   1
_chemical_formula_structural   AgNO2
_chemical_formula_sum   'Ag2 N2 O4'
_cell_volume   129.52106860
_cell_formula_units_Z   2
loop_
 _symmetry_equiv_pos_site_id
 _symmetry_equiv_pos_as_xyz
  1  'x, y, z'
loop_
 _atom_site_type_symbol
 _atom_site_label
 _atom_site_symmetry_multiplicity
 _atom_site_fract_x
 _atom_site_fract_y
 _atom_site_fract_z
 _atom_site_occupancy
  Ag  Ag0  1  0.442540  0.035540  0.713470  1
  Ag  Ag1  1  0.035540  0.442540  0.286530  1
  N  N2  1  0.994260  0.634480  0.744790  1
  N  N3  1  0.634480  0.994260  0.255210  1
  O  O4  1  0.602130  0.818790  0.155770  1
  O  O5  1  0.416040  0.902960  0.344950  1
  O  O6  1  0.902960  0.416040  0.655050  1
  O  O7  1  0.818790  0.602130  0.844230  1
