# generated using pymatgen
data_Cu2GeO4
_symmetry_space_group_name_H-M   'P 1'
_cell_length_a   6.55212669
_cell_length_b   6.55212669
_cell_length_c   6.55212669
_cell_angle_alpha   129.45061401
_cell_angle_beta   129.45061401
_cell_angle_gamma   74.28658927
_symmetry_Int_Tables_number   1
_chemical_formula_structural   Cu2GeO4
_chemical_formula_sum   'Cu4 Ge2 O8'
_cell_volume   163.49564183
_cell_formula_units_Z   2
loop_
 _symmetry_equiv_pos_site_id
 _symmetry_equiv_pos_as_xyz
  1  'x, y, z'
loop_
 _atom_site_type_symbol
 _atom_site_label
 _atom_site_symmetry_multiplicity
 _atom_site_fract_x
 _atom_site_fract_y
 _atom_site_fract_z
 _atom_site_occupancy
  Cu  Cu0  1  0.875000  0.125000  0.750000  1
  Cu  Cu1  1  0.875000  0.625000  0.750000  1
  Cu  Cu2  1  0.875000  0.125000  0.250000  1
  Cu  Cu3  1  0.375000  0.125000  0.250000  1
  Ge  Ge4  1  0.250000  0.750000  0.500000  1
  Ge  Ge5  1  0.500000  0.500000  0.000000  1
  O  O6  1  0.611392  0.848315  0.763077  1
  O  O7  1  0.151685  0.914762  0.763077  1
  O  O8  1  0.151685  0.388608  0.236923  1
  O  O9  1  0.138608  0.401685  0.736923  1
  O  O10  1  0.664762  0.401685  0.263077  1
  O  O11  1  0.598315  0.335238  0.736923  1
  O  O12  1  0.085238  0.848315  0.236923  1
  O  O13  1  0.598315  0.861392  0.263077  1
