# generated using pymatgen
data_Tb2S3
_symmetry_space_group_name_H-M   'P 1'
_cell_length_a   3.89589511
_cell_length_b   10.50653886
_cell_length_c   10.70462637
_cell_angle_alpha   90.00000000
_cell_angle_beta   90.00000000
_cell_angle_gamma   90.00000000
_symmetry_Int_Tables_number   1
_chemical_formula_structural   Tb2S3
_chemical_formula_sum   'Tb8 S12'
_cell_volume   438.16576334
_cell_formula_units_Z   4
loop_
 _symmetry_equiv_pos_site_id
 _symmetry_equiv_pos_as_xyz
  1  'x, y, z'
loop_
 _atom_site_type_symbol
 _atom_site_label
 _atom_site_symmetry_multiplicity
 _atom_site_fract_x
 _atom_site_fract_y
 _atom_site_fract_z
 _atom_site_occupancy
  Tb  Tb0  1  0.250000  0.996180  0.807934  1
  Tb  Tb1  1  0.750000  0.003820  0.192066  1
  Tb  Tb2  1  0.750000  0.496180  0.692066  1
  Tb  Tb3  1  0.250000  0.503820  0.307934  1
  Tb  Tb4  1  0.250000  0.186660  0.490213  1
  Tb  Tb5  1  0.750000  0.813340  0.509787  1
  Tb  Tb6  1  0.750000  0.686660  0.009787  1
  Tb  Tb7  1  0.250000  0.313340  0.990213  1
  S  S8  1  0.250000  0.303527  0.728109  1
  S  S9  1  0.750000  0.696473  0.271891  1
  S  S10  1  0.750000  0.803527  0.771891  1
  S  S11  1  0.250000  0.196473  0.228109  1
  S  S12  1  0.250000  0.944529  0.380342  1
  S  S13  1  0.750000  0.055471  0.619658  1
  S  S14  1  0.750000  0.444529  0.119658  1
  S  S15  1  0.250000  0.555471  0.880342  1
  S  S16  1  0.250000  0.873364  0.045746  1
  S  S17  1  0.750000  0.126636  0.954254  1
  S  S18  1  0.750000  0.373364  0.454254  1
  S  S19  1  0.250000  0.626636  0.545746  1
