# generated using pymatgen
data_MgB7
_symmetry_space_group_name_H-M   'P 1'
_cell_length_a   7.26397269
_cell_length_b   7.26397269
_cell_length_c   7.26397269
_cell_angle_alpha   131.43867798
_cell_angle_beta   112.11232241
_cell_angle_gamma   87.80838314
_symmetry_Int_Tables_number   1
_chemical_formula_structural   MgB7
_chemical_formula_sum   'Mg4 B28'
_cell_volume   253.63365062
_cell_formula_units_Z   4
loop_
 _symmetry_equiv_pos_site_id
 _symmetry_equiv_pos_as_xyz
  1  'x, y, z'
loop_
 _atom_site_type_symbol
 _atom_site_label
 _atom_site_symmetry_multiplicity
 _atom_site_fract_x
 _atom_site_fract_y
 _atom_site_fract_z
 _atom_site_occupancy
  Mg  Mg0  1  0.000000  0.500000  0.000000  1
  Mg  Mg1  1  0.000000  0.000000  0.500000  1
  Mg  Mg2  1  0.386153  0.250000  0.136153  1
  Mg  Mg3  1  0.613847  0.750000  0.863847  1
  B  B4  1  0.243992  0.359055  0.884937  1
  B  B5  1  0.377484  0.675706  0.208879  1
  B  B6  1  0.377484  0.168605  0.701778  1
  B  B7  1  0.758618  0.082228  0.676390  1
  B  B8  1  0.358204  0.833926  0.524278  1
  B  B9  1  0.599666  0.781022  0.507772  1
  B  B10  1  0.599666  0.091894  0.818644  1
  B  B11  1  0.905838  0.582228  0.323610  1
  B  B12  1  0.025882  0.140945  0.884937  1
  B  B13  1  0.190351  0.666074  0.524278  1
  B  B14  1  0.033173  0.331395  0.208879  1
  B  B15  1  0.033173  0.824294  0.701778  1
  B  B16  1  0.773250  0.281022  0.181356  1
  B  B17  1  0.773250  0.591894  0.492228  1
  B  B18  1  0.226750  0.408106  0.507772  1
  B  B19  1  0.226750  0.718978  0.818644  1
  B  B20  1  0.966827  0.175706  0.298222  1
  B  B21  1  0.966827  0.668605  0.791121  1
  B  B22  1  0.809649  0.333926  0.475722  1
  B  B23  1  0.974118  0.859055  0.115063  1
  B  B24  1  0.094162  0.417772  0.676390  1
  B  B25  1  0.400334  0.908106  0.181356  1
  B  B26  1  0.400334  0.218978  0.492228  1
  B  B27  1  0.641796  0.166074  0.475722  1
  B  B28  1  0.241382  0.917772  0.323610  1
  B  B29  1  0.622516  0.831395  0.298222  1
  B  B30  1  0.622516  0.324294  0.791121  1
  B  B31  1  0.756008  0.640945  0.115063  1
