# generated using pymatgen
data_Sr2SmSbO6
_symmetry_space_group_name_H-M   'P 1'
_cell_length_a   5.89046316
_cell_length_b   6.00564101
_cell_length_c   10.23237306
_cell_angle_alpha   90.00000000
_cell_angle_beta   124.83353611
_cell_angle_gamma   90.00000000
_symmetry_Int_Tables_number   1
_chemical_formula_structural   Sr2SmSbO6
_chemical_formula_sum   'Sr4 Sm2 Sb2 O12'
_cell_volume   297.11903343
_cell_formula_units_Z   2
loop_
 _symmetry_equiv_pos_site_id
 _symmetry_equiv_pos_as_xyz
  1  'x, y, z'
loop_
 _atom_site_type_symbol
 _atom_site_label
 _atom_site_symmetry_multiplicity
 _atom_site_fract_x
 _atom_site_fract_y
 _atom_site_fract_z
 _atom_site_occupancy
  Sr  Sr0  1  0.238636  0.042593  0.249468  1
  Sr  Sr1  1  0.761364  0.542593  0.250532  1
  Sr  Sr2  1  0.761364  0.957407  0.750532  1
  Sr  Sr3  1  0.238636  0.457407  0.749468  1
  Sm  Sm4  1  0.500000  0.000000  0.000000  1
  Sm  Sm5  1  0.500000  0.500000  0.500000  1
  Sb  Sb6  1  0.000000  0.500000  0.000000  1
  Sb  Sb7  1  0.000000  0.000000  0.500000  1
  O  O8  1  0.320337  0.471210  0.232033  1
  O  O9  1  0.679663  0.971210  0.267967  1
  O  O10  1  0.679663  0.528790  0.767967  1
  O  O11  1  0.320337  0.028790  0.732033  1
  O  O12  1  0.138848  0.275833  0.451241  1
  O  O13  1  0.861152  0.775833  0.048759  1
  O  O14  1  0.861152  0.724167  0.548759  1
  O  O15  1  0.138848  0.224167  0.951241  1
  O  O16  1  0.770374  0.307545  0.045213  1
  O  O17  1  0.229626  0.807545  0.454787  1
  O  O18  1  0.229626  0.692455  0.954787  1
  O  O19  1  0.770374  0.192455  0.545213  1
