# generated using pymatgen
data_Sb3Mo
_symmetry_space_group_name_H-M   'P 1'
_cell_length_a   5.01684851
_cell_length_b   5.01684851
_cell_length_c   5.01684851
_cell_angle_alpha   60.00000000
_cell_angle_beta   60.00000000
_cell_angle_gamma   60.00000000
_symmetry_Int_Tables_number   1
_chemical_formula_structural   Sb3Mo
_chemical_formula_sum   'Sb3 Mo1'
_cell_volume   89.28488900
_cell_formula_units_Z   1
loop_
 _symmetry_equiv_pos_site_id
 _symmetry_equiv_pos_as_xyz
  1  'x, y, z'
loop_
 _atom_site_type_symbol
 _atom_site_label
 _atom_site_symmetry_multiplicity
 _atom_site_fract_x
 _atom_site_fract_y
 _atom_site_fract_z
 _atom_site_occupancy
  Sb  Sb0  1  0.750000  0.750000  0.750000  1
  Sb  Sb1  1  0.250000  0.250000  0.250000  1
  Sb  Sb2  1  0.500000  0.500000  0.500000  1
  Mo  Mo3  1  0.000000  0.000000  0.000000  1
