# generated using pymatgen
data_K4Hf5O12
_symmetry_space_group_name_H-M   'P 1'
_cell_length_a   5.82458463
_cell_length_b   5.82458463
_cell_length_c   10.42041699
_cell_angle_alpha   90.00000000
_cell_angle_beta   90.00000000
_cell_angle_gamma   120.00000000
_symmetry_Int_Tables_number   1
_chemical_formula_structural   K4Hf5O12
_chemical_formula_sum   'K4 Hf5 O12'
_cell_volume   306.15802645
_cell_formula_units_Z   1
loop_
 _symmetry_equiv_pos_site_id
 _symmetry_equiv_pos_as_xyz
  1  'x, y, z'
loop_
 _atom_site_type_symbol
 _atom_site_label
 _atom_site_symmetry_multiplicity
 _atom_site_fract_x
 _atom_site_fract_y
 _atom_site_fract_z
 _atom_site_occupancy
  K  K0  1  0.000000  0.000000  0.324385  1
  K  K1  1  0.000000  0.000000  0.675615  1
  K  K2  1  0.333333  0.666667  0.114109  1
  K  K3  1  0.666667  0.333333  0.885891  1
  Hf  Hf4  1  0.333333  0.666667  0.476464  1
  Hf  Hf5  1  0.666667  0.333333  0.523536  1
  Hf  Hf6  1  0.000000  0.000000  0.000000  1
  Hf  Hf7  1  0.333333  0.666667  0.783473  1
  Hf  Hf8  1  0.666667  0.333333  0.216527  1
  O  O9  1  0.835391  0.164609  0.121730  1
  O  O10  1  0.835391  0.670783  0.121730  1
  O  O11  1  0.329217  0.164609  0.121730  1
  O  O12  1  0.670783  0.835391  0.878270  1
  O  O13  1  0.164609  0.329217  0.878270  1
  O  O14  1  0.164609  0.835391  0.878270  1
  O  O15  1  0.509339  0.490661  0.377387  1
  O  O16  1  0.509339  0.018679  0.377387  1
  O  O17  1  0.981321  0.490661  0.377387  1
  O  O18  1  0.018679  0.509339  0.622613  1
  O  O19  1  0.490661  0.981321  0.622613  1
  O  O20  1  0.490661  0.509339  0.622613  1
