# generated using pymatgen
data_Eu(CuO2)2
_symmetry_space_group_name_H-M   'P 1'
_cell_length_a   6.36447606
_cell_length_b   6.36447606
_cell_length_c   6.36447606
_cell_angle_alpha   125.32753895
_cell_angle_beta   125.32753895
_cell_angle_gamma   80.99621798
_symmetry_Int_Tables_number   1
_chemical_formula_structural   Eu(CuO2)2
_chemical_formula_sum   'Eu2 Cu4 O8'
_cell_volume   165.36020045
_cell_formula_units_Z   2
loop_
 _symmetry_equiv_pos_site_id
 _symmetry_equiv_pos_as_xyz
  1  'x, y, z'
loop_
 _atom_site_type_symbol
 _atom_site_label
 _atom_site_symmetry_multiplicity
 _atom_site_fract_x
 _atom_site_fract_y
 _atom_site_fract_z
 _atom_site_occupancy
  Eu  Eu0  1  0.500000  0.500000  0.000000  1
  Eu  Eu1  1  0.250000  0.750000  0.500000  1
  Cu  Cu2  1  0.375000  0.125000  0.250000  1
  Cu  Cu3  1  0.875000  0.125000  0.750000  1
  Cu  Cu4  1  0.875000  0.625000  0.750000  1
  Cu  Cu5  1  0.875000  0.125000  0.250000  1
  O  O6  1  0.903145  0.326513  0.131302  1
  O  O7  1  0.195211  0.771843  0.868698  1
  O  O8  1  0.846855  0.923487  0.368698  1
  O  O9  1  0.554789  0.478157  0.631302  1
  O  O10  1  0.521843  0.153145  0.076632  1
  O  O11  1  0.076513  0.445211  0.923368  1
  O  O12  1  0.673487  0.804789  0.576632  1
  O  O13  1  0.228157  0.096855  0.423368  1
