# generated using pymatgen
data_In3Cu
_symmetry_space_group_name_H-M   'P 1'
_cell_length_a   7.04422788
_cell_length_b   7.04422788
_cell_length_c   4.42876016
_cell_angle_alpha   90.00000000
_cell_angle_beta   90.00000000
_cell_angle_gamma   120.00000000
_symmetry_Int_Tables_number   1
_chemical_formula_structural   In3Cu
_chemical_formula_sum   'In6 Cu2'
_cell_volume   190.31787823
_cell_formula_units_Z   2
loop_
 _symmetry_equiv_pos_site_id
 _symmetry_equiv_pos_as_xyz
  1  'x, y, z'
loop_
 _atom_site_type_symbol
 _atom_site_label
 _atom_site_symmetry_multiplicity
 _atom_site_fract_x
 _atom_site_fract_y
 _atom_site_fract_z
 _atom_site_occupancy
  In  In0  1  0.819683  0.639365  0.750000  1
  In  In1  1  0.819683  0.180317  0.750000  1
  In  In2  1  0.360635  0.180317  0.750000  1
  In  In3  1  0.180317  0.360635  0.250000  1
  In  In4  1  0.180317  0.819683  0.250000  1
  In  In5  1  0.639365  0.819683  0.250000  1
  Cu  Cu6  1  0.666667  0.333333  0.250000  1
  Cu  Cu7  1  0.333333  0.666667  0.750000  1
