# generated using pymatgen
data_Sm(NiBi)2
_symmetry_space_group_name_H-M   'P 1'
_cell_length_a   4.64014069
_cell_length_b   4.64014069
_cell_length_c   10.15811432
_cell_angle_alpha   90.00000000
_cell_angle_beta   90.00000000
_cell_angle_gamma   90.00000000
_symmetry_Int_Tables_number   1
_chemical_formula_structural   Sm(NiBi)2
_chemical_formula_sum   'Sm2 Ni4 Bi4'
_cell_volume   218.71340073
_cell_formula_units_Z   2
loop_
 _symmetry_equiv_pos_site_id
 _symmetry_equiv_pos_as_xyz
  1  'x, y, z'
loop_
 _atom_site_type_symbol
 _atom_site_label
 _atom_site_symmetry_multiplicity
 _atom_site_fract_x
 _atom_site_fract_y
 _atom_site_fract_z
 _atom_site_occupancy
  Sm  Sm0  1  0.000000  0.500000  0.769860  1
  Sm  Sm1  1  0.500000  0.000000  0.230140  1
  Ni  Ni2  1  0.000000  0.500000  0.374909  1
  Ni  Ni3  1  0.500000  0.000000  0.625091  1
  Ni  Ni4  1  0.500000  0.500000  0.000000  1
  Ni  Ni5  1  0.000000  0.000000  0.000000  1
  Bi  Bi6  1  0.000000  0.500000  0.125489  1
  Bi  Bi7  1  0.500000  0.000000  0.874511  1
  Bi  Bi8  1  0.500000  0.500000  0.500000  1
  Bi  Bi9  1  0.000000  0.000000  0.500000  1
