# generated using pymatgen
data_TlHgF3
_symmetry_space_group_name_H-M   'P 1'
_cell_length_a   4.61202279
_cell_length_b   4.61822995
_cell_length_c   4.63378231
_cell_angle_alpha   88.50175645
_cell_angle_beta   89.46870094
_cell_angle_gamma   89.84843653
_symmetry_Int_Tables_number   1
_chemical_formula_structural   TlHgF3
_chemical_formula_sum   'Tl1 Hg1 F3'
_cell_volume   98.65842976
_cell_formula_units_Z   1
loop_
 _symmetry_equiv_pos_site_id
 _symmetry_equiv_pos_as_xyz
  1  'x, y, z'
loop_
 _atom_site_type_symbol
 _atom_site_label
 _atom_site_symmetry_multiplicity
 _atom_site_fract_x
 _atom_site_fract_y
 _atom_site_fract_z
 _atom_site_occupancy
  Tl  Tl0  1  0.026767  0.963317  0.067748  1
  Hg  Hg1  1  0.503204  0.495748  0.519949  1
  F  F2  1  0.000119  0.530010  0.468877  1
  F  F3  1  0.477893  0.007663  0.447806  1
  F  F4  1  0.492016  0.563259  0.005622  1
