# generated using pymatgen
data_ZnCu2SiS4
_symmetry_space_group_name_H-M   'P 1'
_cell_length_a   6.15460583
_cell_length_b   6.45041204
_cell_length_c   7.37368799
_cell_angle_alpha   90.00000000
_cell_angle_beta   90.00000000
_cell_angle_gamma   90.00000000
_symmetry_Int_Tables_number   1
_chemical_formula_structural   ZnCu2SiS4
_chemical_formula_sum   'Zn2 Cu4 Si2 S8'
_cell_volume   292.73352220
_cell_formula_units_Z   2
loop_
 _symmetry_equiv_pos_site_id
 _symmetry_equiv_pos_as_xyz
  1  'x, y, z'
loop_
 _atom_site_type_symbol
 _atom_site_label
 _atom_site_symmetry_multiplicity
 _atom_site_fract_x
 _atom_site_fract_y
 _atom_site_fract_z
 _atom_site_occupancy
  Zn  Zn0  1  0.656634  0.348873  0.500000  1
  Zn  Zn1  1  0.156634  0.651127  0.000000  1
  Cu  Cu2  1  0.664946  0.826976  0.247745  1
  Cu  Cu3  1  0.664946  0.826976  0.752255  1
  Cu  Cu4  1  0.164946  0.173024  0.252255  1
  Cu  Cu5  1  0.164946  0.173024  0.747745  1
  Si  Si6  1  0.655137  0.329073  0.000000  1
  Si  Si7  1  0.155137  0.670927  0.500000  1
  S  S8  1  0.540644  0.644540  0.000000  1
  S  S9  1  0.536765  0.165492  0.236695  1
  S  S10  1  0.536765  0.165492  0.763305  1
  S  S11  1  0.506262  0.681912  0.500000  1
  S  S12  1  0.040644  0.355460  0.500000  1
  S  S13  1  0.036765  0.834508  0.263305  1
  S  S14  1  0.036765  0.834508  0.736695  1
  S  S15  1  0.006262  0.318088  0.000000  1
