# generated using pymatgen
data_Nd(NiBi)2
_symmetry_space_group_name_H-M   'P 1'
_cell_length_a   4.68263740
_cell_length_b   4.68263740
_cell_length_c   10.20726833
_cell_angle_alpha   90.00000000
_cell_angle_beta   90.00000000
_cell_angle_gamma   90.00000000
_symmetry_Int_Tables_number   1
_chemical_formula_structural   Nd(NiBi)2
_chemical_formula_sum   'Nd2 Ni4 Bi4'
_cell_volume   223.81572215
_cell_formula_units_Z   2
loop_
 _symmetry_equiv_pos_site_id
 _symmetry_equiv_pos_as_xyz
  1  'x, y, z'
loop_
 _atom_site_type_symbol
 _atom_site_label
 _atom_site_symmetry_multiplicity
 _atom_site_fract_x
 _atom_site_fract_y
 _atom_site_fract_z
 _atom_site_occupancy
  Nd  Nd0  1  0.500000  0.000000  0.766910  1
  Nd  Nd1  1  0.000000  0.500000  0.233090  1
  Ni  Ni2  1  0.500000  0.000000  0.376102  1
  Ni  Ni3  1  0.000000  0.500000  0.623898  1
  Ni  Ni4  1  0.000000  0.000000  0.000000  1
  Ni  Ni5  1  0.500000  0.500000  0.000000  1
  Bi  Bi6  1  0.500000  0.000000  0.124544  1
  Bi  Bi7  1  0.000000  0.500000  0.875456  1
  Bi  Bi8  1  0.000000  0.000000  0.500000  1
  Bi  Bi9  1  0.500000  0.500000  0.500000  1
