# generated using pymatgen
data_InPbCl3
_symmetry_space_group_name_H-M   'P 1'
_cell_length_a   7.33043601
_cell_length_b   7.33043601
_cell_length_c   10.68204177
_cell_angle_alpha   90.00000000
_cell_angle_beta   90.00000000
_cell_angle_gamma   145.91212773
_symmetry_Int_Tables_number   1
_chemical_formula_structural   InPbCl3
_chemical_formula_sum   'In2 Pb2 Cl6'
_cell_volume   321.70764478
_cell_formula_units_Z   2
loop_
 _symmetry_equiv_pos_site_id
 _symmetry_equiv_pos_as_xyz
  1  'x, y, z'
loop_
 _atom_site_type_symbol
 _atom_site_label
 _atom_site_symmetry_multiplicity
 _atom_site_fract_x
 _atom_site_fract_y
 _atom_site_fract_z
 _atom_site_occupancy
  In  In0  1  0.747551  0.252449  0.750000  1
  In  In1  1  0.252449  0.747551  0.250000  1
  Pb  Pb2  1  0.000000  0.000000  0.500000  1
  Pb  Pb3  1  0.000000  0.000000  0.000000  1
  Cl  Cl4  1  0.635953  0.364047  0.442918  1
  Cl  Cl5  1  0.364047  0.635953  0.942918  1
  Cl  Cl6  1  0.635953  0.364047  0.057082  1
  Cl  Cl7  1  0.364047  0.635953  0.557082  1
  Cl  Cl8  1  0.085673  0.914327  0.750000  1
  Cl  Cl9  1  0.914327  0.085673  0.250000  1
