# generated using pymatgen
data_Li7La3Zr2O12
_symmetry_space_group_name_H-M   'P 1'
_cell_length_a   11.31061906
_cell_length_b   11.31061906
_cell_length_c   11.31061906
_cell_angle_alpha   108.37749935
_cell_angle_beta   108.37749935
_cell_angle_gamma   111.68153130
_symmetry_Int_Tables_number   1
_chemical_formula_structural   Li7La3Zr2O12
_chemical_formula_sum   'Li28 La12 Zr8 O48'
_cell_volume   1112.62842101
_cell_formula_units_Z   4
loop_
 _symmetry_equiv_pos_site_id
 _symmetry_equiv_pos_as_xyz
  1  'x, y, z'
loop_
 _atom_site_type_symbol
 _atom_site_label
 _atom_site_symmetry_multiplicity
 _atom_site_fract_x
 _atom_site_fract_y
 _atom_site_fract_z
 _atom_site_occupancy
  Li  Li0  1  1.000000  1.000000  0.000000  1
  Li  Li1  1  0.500000  0.500000  0.000000  1
  Li  Li2  1  0.750000  0.250000  0.500000  1
  Li  Li3  1  0.250000  0.750000  0.500000  1
  Li  Li4  1  0.568789  0.568789  0.637578  1
  Li  Li5  1  0.068789  0.431211  1.000000  1
  Li  Li6  1  0.318789  0.818789  0.137578  1
  Li  Li7  1  0.818789  0.681211  0.500000  1
  Li  Li8  1  0.681211  0.181211  0.862422  1
  Li  Li9  1  0.181211  0.318789  0.500000  1
  Li  Li10  1  0.931211  0.931211  0.362422  1
  Li  Li11  1  0.431211  0.068789  0.000000  1
  Li  Li12  1  0.350341  0.593322  0.081950  1
  Li  Li13  1  0.850341  0.768391  0.757018  1
  Li  Li14  1  0.343322  0.600341  0.581950  1
  Li  Li15  1  0.843322  0.261372  0.742982  1
  Li  Li16  1  0.899659  0.156678  0.418050  1
  Li  Li17  1  0.399659  0.981609  0.742982  1
  Li  Li18  1  0.906678  0.149659  0.918050  1
  Li  Li19  1  0.406678  0.488628  0.757018  1
  Li  Li20  1  0.011372  0.093322  0.242982  1
  Li  Li21  1  0.511372  0.268391  0.918050  1
  Li  Li22  1  0.518391  0.100341  0.257018  1
  Li  Li23  1  0.018391  0.761372  0.418050  1
  Li  Li24  1  0.238628  0.656678  0.257018  1
  Li  Li25  1  0.738628  0.481609  0.581950  1
  Li  Li26  1  0.731609  0.649659  0.242982  1
  Li  Li27  1  0.231609  0.988628  0.081950  1
  La  La28  1  0.750000  0.750000  0.000000  1
  La  La29  1  0.250000  0.250000  0.000000  1
  La  La30  1  0.500000  0.000000  0.500000  1
  La  La31  1  1.000000  0.500000  0.500000  1
  La  La32  1  0.747630  0.125000  0.122630  1
  La  La33  1  0.247630  0.125000  0.622630  1
  La  La34  1  0.875000  0.997630  0.622630  1
  La  La35  1  0.375000  0.752370  0.877370  1
  La  La36  1  0.502370  0.625000  0.377370  1
  La  La37  1  0.002370  0.625000  0.877370  1
  La  La38  1  0.875000  0.497630  0.122630  1
  La  La39  1  0.375000  0.252370  0.377370  1
  Zr  Zr40  1  0.625000  0.875000  0.250000  1
  Zr  Zr41  1  0.125000  0.875000  0.750000  1
  Zr  Zr42  1  0.625000  0.875000  0.750000  1
  Zr  Zr43  1  0.125000  0.375000  0.750000  1
  Zr  Zr44  1  0.125000  0.375000  0.250000  1
  Zr  Zr45  1  0.625000  0.375000  0.750000  1
  Zr  Zr46  1  0.625000  0.375000  0.250000  1
  Zr  Zr47  1  0.125000  0.875000  0.250000  1
  O  O48  1  0.813320  0.973221  0.229133  1
  O  O49  1  0.313320  0.084187  0.840099  1
  O  O50  1  0.723221  0.063320  0.729133  1
  O  O51  1  0.223221  0.494088  0.659901  1
  O  O52  1  0.436680  0.776779  0.270867  1
  O  O53  1  0.936680  0.665813  0.659901  1
  O  O54  1  0.526779  0.686680  0.770867  1
  O  O55  1  0.026779  0.255912  0.840099  1
  O  O56  1  0.244088  0.473221  0.159901  1
  O  O57  1  0.744088  0.584187  0.770867  1
  O  O58  1  0.834187  0.563320  0.340099  1
  O  O59  1  0.334187  0.994088  0.270867  1
  O  O60  1  0.005912  0.276779  0.340099  1
  O  O61  1  0.505912  0.165813  0.729133  1
  O  O62  1  0.415813  0.186680  0.159901  1
  O  O63  1  0.915813  0.755912  0.229133  1
  O  O64  1  0.104370  0.556890  0.342594  1
  O  O65  1  0.604370  0.261776  0.547480  1
  O  O66  1  0.306890  0.354370  0.842594  1
  O  O67  1  0.806890  0.964296  0.952520  1
  O  O68  1  0.145630  0.193110  0.157406  1
  O  O69  1  0.645630  0.488224  0.952520  1
  O  O70  1  0.943110  0.395630  0.657406  1
  O  O71  1  0.443110  0.785704  0.547480  1
  O  O72  1  0.714296  0.056890  0.452520  1
  O  O73  1  0.214296  0.761776  0.657406  1
  O  O74  1  0.011776  0.854370  0.047480  1
  O  O75  1  0.511776  0.464296  0.157406  1
  O  O76  1  0.535704  0.693110  0.047480  1
  O  O77  1  0.035704  0.988224  0.842594  1
  O  O78  1  0.238224  0.895630  0.452520  1
  O  O79  1  0.738224  0.285704  0.342594  1
  O  O80  1  0.920413  0.294463  0.072404  1
  O  O81  1  0.420413  0.348009  0.625950  1
  O  O82  1  0.044463  0.170413  0.572404  1
  O  O83  1  0.544463  0.972059  0.874050  1
  O  O84  1  0.329587  0.455537  0.427596  1
  O  O85  1  0.829587  0.401991  0.874050  1
  O  O86  1  0.205537  0.579587  0.927596  1
  O  O87  1  0.705537  0.777941  0.625950  1
  O  O88  1  0.722059  0.794463  0.374050  1
  O  O89  1  0.222059  0.848009  0.927596  1
  O  O90  1  0.098009  0.670413  0.125950  1
  O  O91  1  0.598009  0.472059  0.427596  1
  O  O92  1  0.527941  0.955537  0.125950  1
  O  O93  1  0.027941  0.901991  0.572404  1
  O  O94  1  0.151991  0.079587  0.374050  1
  O  O95  1  0.651991  0.277941  0.072404  1
