# generated using pymatgen
data_KBeH3
_symmetry_space_group_name_H-M   'P 1'
_cell_length_a   6.86125831
_cell_length_b   5.49743762
_cell_length_c   9.04422070
_cell_angle_alpha   90.00000000
_cell_angle_beta   105.89146896
_cell_angle_gamma   90.00000000
_symmetry_Int_Tables_number   1
_chemical_formula_structural   KBeH3
_chemical_formula_sum   'K4 Be4 H12'
_cell_volume   328.10429622
_cell_formula_units_Z   4
loop_
 _symmetry_equiv_pos_site_id
 _symmetry_equiv_pos_as_xyz
  1  'x, y, z'
loop_
 _atom_site_type_symbol
 _atom_site_label
 _atom_site_symmetry_multiplicity
 _atom_site_fract_x
 _atom_site_fract_y
 _atom_site_fract_z
 _atom_site_occupancy
  K  K0  1  0.730924  0.248592  0.198215  1
  K  K1  1  0.269076  0.748592  0.301785  1
  K  K2  1  0.730924  0.251408  0.698215  1
  K  K3  1  0.269076  0.751408  0.801785  1
  Be  Be4  1  0.254110  0.255941  0.002971  1
  Be  Be5  1  0.745890  0.755941  0.497029  1
  Be  Be6  1  0.254110  0.244059  0.502971  1
  Be  Be7  1  0.745890  0.744059  0.997029  1
  H  H8  1  0.317222  0.027162  0.066472  1
  H  H9  1  0.338856  0.467079  0.080526  1
  H  H10  1  0.875667  0.725941  0.146142  1
  H  H11  1  0.124333  0.225941  0.353858  1
  H  H12  1  0.661144  0.967079  0.419474  1
  H  H13  1  0.682778  0.527162  0.433528  1
  H  H14  1  0.317222  0.472838  0.566472  1
  H  H15  1  0.338856  0.032921  0.580526  1
  H  H16  1  0.875667  0.774059  0.646142  1
  H  H17  1  0.124333  0.274059  0.853858  1
  H  H18  1  0.661144  0.532921  0.919474  1
  H  H19  1  0.682778  0.972838  0.933528  1
