# generated using pymatgen
data_Sm3Cr
_symmetry_space_group_name_H-M   'P 1'
_cell_length_a   6.02853002
_cell_length_b   6.02853002
_cell_length_c   6.02853002
_cell_angle_alpha   132.90477600
_cell_angle_beta   132.90477600
_cell_angle_gamma   68.80373099
_symmetry_Int_Tables_number   1
_chemical_formula_structural   Sm3Cr
_chemical_formula_sum   'Sm3 Cr1'
_cell_volume   115.41327321
_cell_formula_units_Z   1
loop_
 _symmetry_equiv_pos_site_id
 _symmetry_equiv_pos_as_xyz
  1  'x, y, z'
loop_
 _atom_site_type_symbol
 _atom_site_label
 _atom_site_symmetry_multiplicity
 _atom_site_fract_x
 _atom_site_fract_y
 _atom_site_fract_z
 _atom_site_occupancy
  Sm  Sm0  1  0.250000  0.750000  0.500000  1
  Sm  Sm1  1  0.750000  0.250000  0.500000  1
  Sm  Sm2  1  0.500000  0.500000  0.000000  1
  Cr  Cr3  1  0.000000  0.000000  0.000000  1
