# generated using pymatgen
data_Li4Fe3(CoO4)3
_symmetry_space_group_name_H-M   'P 1'
_cell_length_a   5.72661678
_cell_length_b   5.90282104
_cell_length_c   6.60989380
_cell_angle_alpha   105.61918890
_cell_angle_beta   102.72223683
_cell_angle_gamma   88.98220820
_symmetry_Int_Tables_number   1
_chemical_formula_structural   Li4Fe3(CoO4)3
_chemical_formula_sum   'Li4 Fe3 Co3 O12'
_cell_volume   209.69641253
_cell_formula_units_Z   1
loop_
 _symmetry_equiv_pos_site_id
 _symmetry_equiv_pos_as_xyz
  1  'x, y, z'
loop_
 _atom_site_type_symbol
 _atom_site_label
 _atom_site_symmetry_multiplicity
 _atom_site_fract_x
 _atom_site_fract_y
 _atom_site_fract_z
 _atom_site_occupancy
  Li  Li0  1  0.178519  0.152452  0.652354  1
  Li  Li1  1  0.821481  0.847548  0.347646  1
  Li  Li2  1  0.500000  0.500000  0.000000  1
  Li  Li3  1  0.000000  0.500000  0.000000  1
  Fe  Fe4  1  0.000000  0.000000  0.000000  1
  Fe  Fe5  1  0.664248  0.668379  0.664495  1
  Fe  Fe6  1  0.335752  0.331621  0.335505  1
  Co  Co7  1  0.500000  0.000000  0.000000  1
  Co  Co8  1  0.167045  0.666917  0.662293  1
  Co  Co9  1  0.832955  0.333083  0.337707  1
  O  O10  1  0.417403  0.890613  0.689265  1
  O  O11  1  0.919396  0.888587  0.672037  1
  O  O12  1  0.582597  0.109387  0.310735  1
  O  O13  1  0.253659  0.760161  0.970636  1
  O  O14  1  0.080604  0.111413  0.327963  1
  O  O15  1  0.739756  0.759254  0.981855  1
  O  O16  1  0.589655  0.559641  0.353438  1
  O  O17  1  0.260244  0.240746  0.018145  1
  O  O18  1  0.081809  0.552605  0.346892  1
  O  O19  1  0.746341  0.239839  0.029364  1
  O  O20  1  0.410345  0.440359  0.646562  1
  O  O21  1  0.918191  0.447395  0.653108  1
