# generated using pymatgen
data_La3Ir3O11
_symmetry_space_group_name_H-M   'P 1'
_cell_length_a   9.57647876
_cell_length_b   9.57647876
_cell_length_c   9.57647876
_cell_angle_alpha   90.00000000
_cell_angle_beta   90.00000000
_cell_angle_gamma   90.00000000
_symmetry_Int_Tables_number   1
_chemical_formula_structural   La3Ir3O11
_chemical_formula_sum   'La12 Ir12 O44'
_cell_volume   878.24876812
_cell_formula_units_Z   4
loop_
 _symmetry_equiv_pos_site_id
 _symmetry_equiv_pos_as_xyz
  1  'x, y, z'
loop_
 _atom_site_type_symbol
 _atom_site_label
 _atom_site_symmetry_multiplicity
 _atom_site_fract_x
 _atom_site_fract_y
 _atom_site_fract_z
 _atom_site_occupancy
  La  La0  1  0.750000  0.750000  0.750000  1
  La  La1  1  0.250000  0.250000  0.750000  1
  La  La2  1  0.750000  0.250000  0.250000  1
  La  La3  1  0.250000  0.750000  0.250000  1
  La  La4  1  0.135257  0.135257  0.135257  1
  La  La5  1  0.864743  0.864743  0.135257  1
  La  La6  1  0.135257  0.864743  0.864743  1
  La  La7  1  0.864743  0.135257  0.864743  1
  La  La8  1  0.364743  0.364743  0.364743  1
  La  La9  1  0.635257  0.635257  0.364743  1
  La  La10  1  0.364743  0.635257  0.635257  1
  La  La11  1  0.635257  0.364743  0.635257  1
  Ir  Ir12  1  0.157793  0.500000  0.000000  1
  Ir  Ir13  1  0.000000  0.157793  0.500000  1
  Ir  Ir14  1  0.500000  0.000000  0.157793  1
  Ir  Ir15  1  0.000000  0.842207  0.500000  1
  Ir  Ir16  1  0.500000  0.000000  0.842207  1
  Ir  Ir17  1  0.842207  0.500000  0.000000  1
  Ir  Ir18  1  0.342207  0.000000  0.500000  1
  Ir  Ir19  1  0.500000  0.342207  0.000000  1
  Ir  Ir20  1  0.000000  0.500000  0.342207  1
  Ir  Ir21  1  0.500000  0.657793  0.000000  1
  Ir  Ir22  1  0.000000  0.500000  0.657793  1
  Ir  Ir23  1  0.657793  0.000000  0.500000  1
  O  O24  1  0.834347  0.502454  0.208668  1
  O  O25  1  0.834347  0.497546  0.791332  1
  O  O26  1  0.165653  0.502454  0.791332  1
  O  O27  1  0.497546  0.791332  0.834347  1
  O  O28  1  0.791332  0.165653  0.502454  1
  O  O29  1  0.791332  0.834347  0.497546  1
  O  O30  1  0.502454  0.208668  0.834347  1
  O  O31  1  0.208668  0.834347  0.502454  1
  O  O32  1  0.502454  0.791332  0.165653  1
  O  O33  1  0.497546  0.208668  0.165653  1
  O  O34  1  0.208668  0.165653  0.497546  1
  O  O35  1  0.165653  0.497546  0.208668  1
  O  O36  1  0.665653  0.997546  0.291332  1
  O  O37  1  0.665653  0.002454  0.708668  1
  O  O38  1  0.334347  0.997546  0.708668  1
  O  O39  1  0.002454  0.708668  0.665653  1
  O  O40  1  0.394567  0.605433  0.394567  1
  O  O41  1  0.708668  0.334347  0.997546  1
  O  O42  1  0.997546  0.291332  0.665653  1
  O  O43  1  0.291332  0.665653  0.997546  1
  O  O44  1  0.997546  0.708668  0.334347  1
  O  O45  1  0.002454  0.291332  0.334347  1
  O  O46  1  0.291332  0.334347  0.002454  1
  O  O47  1  0.334347  0.002454  0.291332  1
  O  O48  1  0.363317  0.000000  0.000000  1
  O  O49  1  0.000000  0.363317  0.000000  1
  O  O50  1  0.000000  0.000000  0.363317  1
  O  O51  1  0.000000  0.636683  0.000000  1
  O  O52  1  0.000000  0.000000  0.636683  1
  O  O53  1  0.636683  0.000000  0.000000  1
  O  O54  1  0.136683  0.500000  0.500000  1
  O  O55  1  0.500000  0.136683  0.500000  1
  O  O56  1  0.500000  0.500000  0.136683  1
  O  O57  1  0.500000  0.863317  0.500000  1
  O  O58  1  0.500000  0.500000  0.863317  1
  O  O59  1  0.863317  0.500000  0.500000  1
  O  O60  1  0.894567  0.894567  0.894567  1
  O  O61  1  0.105433  0.105433  0.894567  1
  O  O62  1  0.894567  0.105433  0.105433  1
  O  O63  1  0.105433  0.894567  0.105433  1
  O  O64  1  0.605433  0.605433  0.605433  1
  O  O65  1  0.394567  0.394567  0.605433  1
  O  O66  1  0.605433  0.394567  0.394567  1
  O  O67  1  0.708668  0.665653  0.002454  1
