# generated using pymatgen
data_ScBe13
_symmetry_space_group_name_H-M   'P 1'
_cell_length_a   7.09185652
_cell_length_b   7.09185652
_cell_length_c   7.09185652
_cell_angle_alpha   60.00000000
_cell_angle_beta   60.00000000
_cell_angle_gamma   60.00000000
_symmetry_Int_Tables_number   1
_chemical_formula_structural   ScBe13
_chemical_formula_sum   'Sc2 Be26'
_cell_volume   252.21146461
_cell_formula_units_Z   2
loop_
 _symmetry_equiv_pos_site_id
 _symmetry_equiv_pos_as_xyz
  1  'x, y, z'
loop_
 _atom_site_type_symbol
 _atom_site_label
 _atom_site_symmetry_multiplicity
 _atom_site_fract_x
 _atom_site_fract_y
 _atom_site_fract_z
 _atom_site_occupancy
  Sc  Sc0  1  0.750000  0.750000  0.750000  1
  Sc  Sc1  1  0.250000  0.250000  0.250000  1
  Be  Be2  1  0.937292  0.292496  0.707504  1
  Be  Be3  1  0.707504  0.062708  0.937292  1
  Be  Be4  1  0.062708  0.707504  0.292496  1
  Be  Be5  1  0.292496  0.937292  0.062708  1
  Be  Be6  1  0.707504  0.292496  0.062708  1
  Be  Be7  1  0.062708  0.292496  0.937292  1
  Be  Be8  1  0.062708  0.937292  0.707504  1
  Be  Be9  1  0.292496  0.062708  0.707504  1
  Be  Be10  1  0.937292  0.062708  0.292496  1
  Be  Be11  1  0.937292  0.707504  0.062708  1
  Be  Be12  1  0.292496  0.707504  0.937292  1
  Be  Be13  1  0.707504  0.937292  0.292496  1
  Be  Be14  1  0.792496  0.207504  0.562708  1
  Be  Be15  1  0.562708  0.437292  0.792496  1
  Be  Be16  1  0.207504  0.792496  0.437292  1
  Be  Be17  1  0.437292  0.562708  0.207504  1
  Be  Be18  1  0.437292  0.207504  0.792496  1
  Be  Be19  1  0.562708  0.207504  0.437292  1
  Be  Be20  1  0.792496  0.562708  0.437292  1
  Be  Be21  1  0.792496  0.437292  0.207504  1
  Be  Be22  1  0.207504  0.437292  0.562708  1
  Be  Be23  1  0.437292  0.792496  0.562708  1
  Be  Be24  1  0.562708  0.792496  0.207504  1
  Be  Be25  1  0.207504  0.562708  0.792496  1
  Be  Be26  1  0.000000  1.000000  1.000000  1
  Be  Be27  1  0.500000  0.500000  0.500000  1
