# generated using pymatgen
data_NaF3
_symmetry_space_group_name_H-M   'P 1'
_cell_length_a   5.06334359
_cell_length_b   5.06334359
_cell_length_c   5.06334359
_cell_angle_alpha   142.39504408
_cell_angle_beta   142.39504408
_cell_angle_gamma   54.23417991
_symmetry_Int_Tables_number   1
_chemical_formula_structural   NaF3
_chemical_formula_sum   'Na1 F3'
_cell_volume   48.01071863
_cell_formula_units_Z   1
loop_
 _symmetry_equiv_pos_site_id
 _symmetry_equiv_pos_as_xyz
  1  'x, y, z'
loop_
 _atom_site_type_symbol
 _atom_site_label
 _atom_site_symmetry_multiplicity
 _atom_site_fract_x
 _atom_site_fract_y
 _atom_site_fract_z
 _atom_site_occupancy
  Na  Na0  1  0.000000  0.000000  0.000000  1
  F  F1  1  0.250000  0.750000  0.500000  1
  F  F2  1  0.750000  0.250000  0.500000  1
  F  F3  1  0.500000  0.500000  0.000000  1
