# generated using pymatgen
data_Ba2Mg(BO3)2
_symmetry_space_group_name_H-M   'P 1'
_cell_length_a   6.44115294
_cell_length_b   6.44115294
_cell_length_c   6.44115294
_cell_angle_alpha   49.63456172
_cell_angle_beta   49.63456172
_cell_angle_gamma   49.63456172
_symmetry_Int_Tables_number   1
_chemical_formula_structural   Ba2Mg(BO3)2
_chemical_formula_sum   'Ba2 Mg1 B2 O6'
_cell_volume   142.65072260
_cell_formula_units_Z   1
loop_
 _symmetry_equiv_pos_site_id
 _symmetry_equiv_pos_as_xyz
  1  'x, y, z'
loop_
 _atom_site_type_symbol
 _atom_site_label
 _atom_site_symmetry_multiplicity
 _atom_site_fract_x
 _atom_site_fract_y
 _atom_site_fract_z
 _atom_site_occupancy
  Ba  Ba0  1  0.223988  0.223988  0.223988  1
  Ba  Ba1  1  0.776012  0.776012  0.776012  1
  Mg  Mg2  1  0.000000  0.000000  0.000000  1
  B  B3  1  0.590371  0.590371  0.590371  1
  B  B4  1  0.409629  0.409629  0.409629  1
  O  O5  1  0.259715  0.259715  0.707439  1
  O  O6  1  0.259715  0.707439  0.259715  1
  O  O7  1  0.707439  0.259715  0.259715  1
  O  O8  1  0.292561  0.740285  0.740285  1
  O  O9  1  0.740285  0.292561  0.740285  1
  O  O10  1  0.740285  0.740285  0.292561  1
