# generated using pymatgen
data_Na5(SiO3)6
_symmetry_space_group_name_H-M   'P 1'
_cell_length_a   7.36404746
_cell_length_b   7.39830333
_cell_length_c   10.42624764
_cell_angle_alpha   89.83303368
_cell_angle_beta   110.47734563
_cell_angle_gamma   119.37300109
_symmetry_Int_Tables_number   1
_chemical_formula_structural   Na5(SiO3)6
_chemical_formula_sum   'Na5 Si6 O18'
_cell_volume   453.72699021
_cell_formula_units_Z   1
loop_
 _symmetry_equiv_pos_site_id
 _symmetry_equiv_pos_as_xyz
  1  'x, y, z'
loop_
 _atom_site_type_symbol
 _atom_site_label
 _atom_site_symmetry_multiplicity
 _atom_site_fract_x
 _atom_site_fract_y
 _atom_site_fract_z
 _atom_site_occupancy
  Na  Na0  1  0.000000  0.000000  0.500000  1
  Na  Na1  1  0.317185  0.129050  0.000943  1
  Na  Na2  1  0.622467  0.311859  0.497682  1
  Na  Na3  1  0.682815  0.870950  0.999057  1
  Na  Na4  1  0.377533  0.688141  0.502318  1
  Si  Si5  1  0.070524  0.815061  0.248356  1
  Si  Si6  1  0.929476  0.184939  0.751644  1
  Si  Si7  1  0.841046  0.346313  0.255653  1
  Si  Si8  1  0.589743  0.580547  0.244673  1
  Si  Si9  1  0.158954  0.653687  0.744347  1
  Si  Si10  1  0.410257  0.419453  0.755327  1
  O  O11  1  0.629716  0.377079  0.251635  1
  O  O12  1  0.370284  0.622921  0.748365  1
  O  O13  1  0.121678  0.924128  0.120973  1
  O  O14  1  0.286895  0.996450  0.380836  1
  O  O15  1  0.878322  0.075872  0.879027  1
  O  O16  1  0.713105  0.003550  0.619164  1
  O  O17  1  0.046171  0.581588  0.256030  1
  O  O18  1  0.831315  0.786060  0.247709  1
  O  O19  1  0.953829  0.418412  0.743970  1
  O  O20  1  0.168685  0.213940  0.752291  1
  O  O21  1  0.739693  0.154310  0.127661  1
  O  O22  1  0.548826  0.626073  0.379447  1
  O  O23  1  0.616106  0.468272  0.902517  1
  O  O24  1  0.075259  0.739178  0.605586  1
  O  O25  1  0.383894  0.531728  0.097483  1
  O  O26  1  0.924741  0.260822  0.394414  1
  O  O27  1  0.451174  0.373927  0.620553  1
  O  O28  1  0.260307  0.845690  0.872339  1
