# generated using pymatgen
data_RbS
_symmetry_space_group_name_H-M   'P 1'
_cell_length_a   8.96560502
_cell_length_b   8.96560502
_cell_length_c   6.19737012
_cell_angle_alpha   90.00000000
_cell_angle_beta   90.00000000
_cell_angle_gamma   120.00000000
_symmetry_Int_Tables_number   1
_chemical_formula_structural   RbS
_chemical_formula_sum   'Rb6 S6'
_cell_volume   431.41701530
_cell_formula_units_Z   6
loop_
 _symmetry_equiv_pos_site_id
 _symmetry_equiv_pos_as_xyz
  1  'x, y, z'
loop_
 _atom_site_type_symbol
 _atom_site_label
 _atom_site_symmetry_multiplicity
 _atom_site_fract_x
 _atom_site_fract_y
 _atom_site_fract_z
 _atom_site_occupancy
  Rb  Rb0  1  0.000000  0.304293  0.500000  1
  Rb  Rb1  1  0.695707  0.695707  0.500000  1
  Rb  Rb2  1  0.304293  0.000000  0.500000  1
  Rb  Rb3  1  0.000000  0.640255  0.000000  1
  Rb  Rb4  1  0.359745  0.359745  0.000000  1
  Rb  Rb5  1  0.640255  0.000000  0.000000  1
  S  S6  1  0.666667  0.333333  0.327145  1
  S  S7  1  0.666667  0.333333  0.672855  1
  S  S8  1  0.333333  0.666667  0.672855  1
  S  S9  1  0.333333  0.666667  0.327145  1
  S  S10  1  0.000000  0.000000  0.828288  1
  S  S11  1  0.000000  0.000000  0.171712  1
