# generated using pymatgen
data_TcGe3
_symmetry_space_group_name_H-M   'P 1'
_cell_length_a   4.81031652
_cell_length_b   4.81031652
_cell_length_c   4.81031652
_cell_angle_alpha   129.90249077
_cell_angle_beta   129.90249077
_cell_angle_gamma   73.56269733
_symmetry_Int_Tables_number   1
_chemical_formula_structural   TcGe3
_chemical_formula_sum   'Tc1 Ge3'
_cell_volume   63.92243391
_cell_formula_units_Z   1
loop_
 _symmetry_equiv_pos_site_id
 _symmetry_equiv_pos_as_xyz
  1  'x, y, z'
loop_
 _atom_site_type_symbol
 _atom_site_label
 _atom_site_symmetry_multiplicity
 _atom_site_fract_x
 _atom_site_fract_y
 _atom_site_fract_z
 _atom_site_occupancy
  Tc  Tc0  1  0.000000  0.000000  0.000000  1
  Ge  Ge1  1  0.250000  0.750000  0.500000  1
  Ge  Ge2  1  0.750000  0.250000  0.500000  1
  Ge  Ge3  1  0.500000  0.500000  0.000000  1
