# generated using pymatgen
data_AgClO2
_symmetry_space_group_name_H-M   'P 1'
_cell_length_a   4.13612183
_cell_length_b   3.50033126
_cell_length_c   10.26089614
_cell_angle_alpha   90.00000000
_cell_angle_beta   99.84381672
_cell_angle_gamma   90.00000000
_symmetry_Int_Tables_number   1
_chemical_formula_structural   AgClO2
_chemical_formula_sum   'Ag2 Cl2 O4'
_cell_volume   146.36805464
_cell_formula_units_Z   2
loop_
 _symmetry_equiv_pos_site_id
 _symmetry_equiv_pos_as_xyz
  1  'x, y, z'
loop_
 _atom_site_type_symbol
 _atom_site_label
 _atom_site_symmetry_multiplicity
 _atom_site_fract_x
 _atom_site_fract_y
 _atom_site_fract_z
 _atom_site_occupancy
  Ag  Ag0  1  0.188737  0.750000  0.361277  1
  Ag  Ag1  1  0.811263  0.250000  0.638723  1
  Cl  Cl2  1  0.685931  0.250000  0.354593  1
  Cl  Cl3  1  0.314069  0.750000  0.645407  1
  O  O4  1  0.075343  0.750000  0.089306  1
  O  O5  1  0.795382  0.750000  0.023431  1
  O  O6  1  0.204618  0.250000  0.976569  1
  O  O7  1  0.924657  0.250000  0.910694  1
