# generated using pymatgen
data_HoVB4
_symmetry_space_group_name_H-M   'P 1'
_cell_length_a   3.43638059
_cell_length_b   5.98960084
_cell_length_c   11.59536903
_cell_angle_alpha   90.00000000
_cell_angle_beta   90.00000000
_cell_angle_gamma   90.00000000
_symmetry_Int_Tables_number   1
_chemical_formula_structural   HoVB4
_chemical_formula_sum   'Ho4 V4 B16'
_cell_volume   238.66224043
_cell_formula_units_Z   4
loop_
 _symmetry_equiv_pos_site_id
 _symmetry_equiv_pos_as_xyz
  1  'x, y, z'
loop_
 _atom_site_type_symbol
 _atom_site_label
 _atom_site_symmetry_multiplicity
 _atom_site_fract_x
 _atom_site_fract_y
 _atom_site_fract_z
 _atom_site_occupancy
  Ho  Ho0  1  0.500000  0.124121  0.651493  1
  Ho  Ho1  1  0.500000  0.875879  0.348507  1
  Ho  Ho2  1  0.500000  0.624121  0.848507  1
  Ho  Ho3  1  0.500000  0.375879  0.151493  1
  V  V4  1  0.500000  0.127295  0.917117  1
  V  V5  1  0.500000  0.872705  0.082883  1
  V  V6  1  0.500000  0.627295  0.582883  1
  V  V7  1  0.500000  0.372705  0.417117  1
  B  B8  1  0.000000  0.477208  0.692488  1
  B  B9  1  0.000000  0.522792  0.307512  1
  B  B10  1  0.000000  0.977208  0.807512  1
  B  B11  1  0.000000  0.022792  0.192488  1
  B  B12  1  0.000000  0.286532  0.814224  1
  B  B13  1  0.000000  0.713468  0.185776  1
  B  B14  1  0.000000  0.786532  0.685776  1
  B  B15  1  0.000000  0.213468  0.314224  1
  B  B16  1  0.000000  0.364764  0.967452  1
  B  B17  1  0.000000  0.635236  0.032548  1
  B  B18  1  0.000000  0.864764  0.532548  1
  B  B19  1  0.000000  0.135236  0.467452  1
  B  B20  1  0.000000  0.385233  0.547524  1
  B  B21  1  0.000000  0.614767  0.452476  1
  B  B22  1  0.000000  0.885233  0.952476  1
  B  B23  1  0.000000  0.114767  0.047524  1
