# generated using pymatgen
data_Bi2Rh3S2
_symmetry_space_group_name_H-M   'P 1'
_cell_length_a   7.12141387
_cell_length_b   7.12141387
_cell_length_c   8.12816330
_cell_angle_alpha   56.31563231
_cell_angle_beta   123.68436769
_cell_angle_gamma   107.50002777
_symmetry_Int_Tables_number   1
_chemical_formula_structural   Bi2Rh3S2
_chemical_formula_sum   'Bi4 Rh6 S4'
_cell_volume   285.40402870
_cell_formula_units_Z   2
loop_
 _symmetry_equiv_pos_site_id
 _symmetry_equiv_pos_as_xyz
  1  'x, y, z'
loop_
 _atom_site_type_symbol
 _atom_site_label
 _atom_site_symmetry_multiplicity
 _atom_site_fract_x
 _atom_site_fract_y
 _atom_site_fract_z
 _atom_site_occupancy
  Bi  Bi0  1  0.007210  0.992790  0.755682  1
  Bi  Bi1  1  0.501180  0.498820  0.752080  1
  Bi  Bi2  1  0.498820  0.501180  0.247920  1
  Bi  Bi3  1  0.992790  0.007210  0.244318  1
  Rh  Rh4  1  0.000000  0.500000  0.000000  1
  Rh  Rh5  1  0.248275  0.248275  0.000000  1
  Rh  Rh6  1  0.751725  0.751725  0.000000  1
  Rh  Rh7  1  0.500000  0.000000  0.000000  1
  Rh  Rh8  1  0.756177  0.243824  0.759097  1
  Rh  Rh9  1  0.243823  0.756177  0.240903  1
  S  S10  1  0.996311  0.545230  0.693161  1
  S  S11  1  0.454770  0.003689  0.693161  1
  S  S12  1  0.003689  0.454770  0.306839  1
  S  S13  1  0.545230  0.996311  0.306839  1
