# generated using pymatgen
data_VPd3
_symmetry_space_group_name_H-M   'P 1'
_cell_length_a   5.52677115
_cell_length_b   5.52677115
_cell_length_c   4.48802319
_cell_angle_alpha   90.00000000
_cell_angle_beta   90.00000000
_cell_angle_gamma   120.00000000
_symmetry_Int_Tables_number   1
_chemical_formula_structural   VPd3
_chemical_formula_sum   'V2 Pd6'
_cell_volume   118.72131194
_cell_formula_units_Z   2
loop_
 _symmetry_equiv_pos_site_id
 _symmetry_equiv_pos_as_xyz
  1  'x, y, z'
loop_
 _atom_site_type_symbol
 _atom_site_label
 _atom_site_symmetry_multiplicity
 _atom_site_fract_x
 _atom_site_fract_y
 _atom_site_fract_z
 _atom_site_occupancy
  V  V0  1  0.333333  0.666667  0.750000  1
  V  V1  1  0.666667  0.333333  0.250000  1
  Pd  Pd2  1  0.169463  0.338927  0.250000  1
  Pd  Pd3  1  0.661073  0.830537  0.250000  1
  Pd  Pd4  1  0.169463  0.830537  0.250000  1
  Pd  Pd5  1  0.830537  0.661073  0.750000  1
  Pd  Pd6  1  0.338927  0.169463  0.750000  1
  Pd  Pd7  1  0.830537  0.169463  0.750000  1
