# generated using pymatgen
data_NaGeAu
_symmetry_space_group_name_H-M   'P 1'
_cell_length_a   5.75975868
_cell_length_b   5.75975868
_cell_length_c   5.75975868
_cell_angle_alpha   133.87593902
_cell_angle_beta   100.44087206
_cell_angle_gamma   97.22003190
_symmetry_Int_Tables_number   1
_chemical_formula_structural   NaGeAu
_chemical_formula_sum   'Na2 Ge2 Au2'
_cell_volume   126.66175201
_cell_formula_units_Z   2
loop_
 _symmetry_equiv_pos_site_id
 _symmetry_equiv_pos_as_xyz
  1  'x, y, z'
loop_
 _atom_site_type_symbol
 _atom_site_label
 _atom_site_symmetry_multiplicity
 _atom_site_fract_x
 _atom_site_fract_y
 _atom_site_fract_z
 _atom_site_occupancy
  Na  Na0  1  0.219045  0.719045  0.500000  1
  Na  Na1  1  0.592844  0.592844  0.000000  1
  Ge  Ge2  1  0.998960  0.323467  0.675494  1
  Ge  Ge3  1  0.647973  0.323467  0.324506  1
  Au  Au4  1  0.202091  0.999519  0.202572  1
  Au  Au5  1  0.796947  0.999519  0.797428  1
