# generated using pymatgen
data_Rb3Er
_symmetry_space_group_name_H-M   'P 1'
_cell_length_a   9.09526926
_cell_length_b   9.09526926
_cell_length_c   7.39932935
_cell_angle_alpha   90.00000000
_cell_angle_beta   90.00000000
_cell_angle_gamma   120.00000000
_symmetry_Int_Tables_number   1
_chemical_formula_structural   Rb3Er
_chemical_formula_sum   'Rb6 Er2'
_cell_volume   530.09549318
_cell_formula_units_Z   2
loop_
 _symmetry_equiv_pos_site_id
 _symmetry_equiv_pos_as_xyz
  1  'x, y, z'
loop_
 _atom_site_type_symbol
 _atom_site_label
 _atom_site_symmetry_multiplicity
 _atom_site_fract_x
 _atom_site_fract_y
 _atom_site_fract_z
 _atom_site_occupancy
  Rb  Rb0  1  0.173694  0.347387  0.250000  1
  Rb  Rb1  1  0.652613  0.826306  0.250000  1
  Rb  Rb2  1  0.173694  0.826306  0.250000  1
  Rb  Rb3  1  0.826306  0.652613  0.750000  1
  Rb  Rb4  1  0.347387  0.173694  0.750000  1
  Rb  Rb5  1  0.826306  0.173694  0.750000  1
  Er  Er6  1  0.333333  0.666667  0.750000  1
  Er  Er7  1  0.666667  0.333333  0.250000  1
