# generated using pymatgen
data_Si3Ag
_symmetry_space_group_name_H-M   'P 1'
_cell_length_a   4.72100372
_cell_length_b   4.72100372
_cell_length_c   4.72100372
_cell_angle_alpha   127.67488338
_cell_angle_beta   127.67488338
_cell_angle_gamma   77.15229911
_symmetry_Int_Tables_number   1
_chemical_formula_structural   Si3Ag
_chemical_formula_sum   'Si3 Ag1'
_cell_volume   63.96848777
_cell_formula_units_Z   1
loop_
 _symmetry_equiv_pos_site_id
 _symmetry_equiv_pos_as_xyz
  1  'x, y, z'
loop_
 _atom_site_type_symbol
 _atom_site_label
 _atom_site_symmetry_multiplicity
 _atom_site_fract_x
 _atom_site_fract_y
 _atom_site_fract_z
 _atom_site_occupancy
  Si  Si0  1  0.250000  0.750000  0.500000  1
  Si  Si1  1  0.750000  0.250000  0.500000  1
  Si  Si2  1  0.500000  0.500000  0.000000  1
  Ag  Ag3  1  0.000000  0.000000  0.000000  1
