# generated using pymatgen
data_Sm(BRh)4
_symmetry_space_group_name_H-M   'P 1'
_cell_length_a   5.36654576
_cell_length_b   5.36654576
_cell_length_c   7.51952100
_cell_angle_alpha   90.00000000
_cell_angle_beta   90.00000000
_cell_angle_gamma   90.00000000
_symmetry_Int_Tables_number   1
_chemical_formula_structural   Sm(BRh)4
_chemical_formula_sum   'Sm2 B8 Rh8'
_cell_volume   216.56080161
_cell_formula_units_Z   2
loop_
 _symmetry_equiv_pos_site_id
 _symmetry_equiv_pos_as_xyz
  1  'x, y, z'
loop_
 _atom_site_type_symbol
 _atom_site_label
 _atom_site_symmetry_multiplicity
 _atom_site_fract_x
 _atom_site_fract_y
 _atom_site_fract_z
 _atom_site_occupancy
  Sm  Sm0  1  0.000000  0.000000  0.000000  1
  Sm  Sm1  1  0.500000  0.500000  0.500000  1
  B  B2  1  0.500000  0.831414  0.849230  1
  B  B3  1  0.500000  0.168586  0.849230  1
  B  B4  1  0.831414  0.500000  0.150770  1
  B  B5  1  0.168586  0.500000  0.150770  1
  B  B6  1  0.331414  0.000000  0.349230  1
  B  B7  1  0.668586  0.000000  0.349230  1
  B  B8  1  0.000000  0.331414  0.650770  1
  B  B9  1  0.000000  0.668586  0.650770  1
  Rh  Rh10  1  0.251129  0.500000  0.856017  1
  Rh  Rh11  1  0.748871  0.500000  0.856017  1
  Rh  Rh12  1  0.500000  0.748871  0.143983  1
  Rh  Rh13  1  0.500000  0.251129  0.143983  1
  Rh  Rh14  1  0.000000  0.751129  0.356017  1
  Rh  Rh15  1  0.000000  0.248871  0.356017  1
  Rh  Rh16  1  0.248871  0.000000  0.643983  1
  Rh  Rh17  1  0.751129  0.000000  0.643983  1
