# generated using pymatgen
data_Sc3Cd
_symmetry_space_group_name_H-M   'P 1'
_cell_length_a   6.40182915
_cell_length_b   6.40182915
_cell_length_c   5.25262323
_cell_angle_alpha   90.00000000
_cell_angle_beta   90.00000000
_cell_angle_gamma   120.00000000
_symmetry_Int_Tables_number   1
_chemical_formula_structural   Sc3Cd
_chemical_formula_sum   'Sc6 Cd2'
_cell_volume   186.42967420
_cell_formula_units_Z   2
loop_
 _symmetry_equiv_pos_site_id
 _symmetry_equiv_pos_as_xyz
  1  'x, y, z'
loop_
 _atom_site_type_symbol
 _atom_site_label
 _atom_site_symmetry_multiplicity
 _atom_site_fract_x
 _atom_site_fract_y
 _atom_site_fract_z
 _atom_site_occupancy
  Sc  Sc0  1  0.169017  0.338035  0.250000  1
  Sc  Sc1  1  0.661965  0.830983  0.250000  1
  Sc  Sc2  1  0.169017  0.830983  0.250000  1
  Sc  Sc3  1  0.830983  0.661965  0.750000  1
  Sc  Sc4  1  0.338035  0.169017  0.750000  1
  Sc  Sc5  1  0.830983  0.169017  0.750000  1
  Cd  Cd6  1  0.333333  0.666667  0.750000  1
  Cd  Cd7  1  0.666667  0.333333  0.250000  1
