# generated using pymatgen
data_HoH2ClO2
_symmetry_space_group_name_H-M   'P 1'
_cell_length_a   6.18299651
_cell_length_b   3.61867030
_cell_length_c   6.63809021
_cell_angle_alpha   90.00000000
_cell_angle_beta   106.93119044
_cell_angle_gamma   90.00000000
_symmetry_Int_Tables_number   1
_chemical_formula_structural   HoH2ClO2
_chemical_formula_sum   'Ho2 H4 Cl2 O4'
_cell_volume   142.08446599
_cell_formula_units_Z   2
loop_
 _symmetry_equiv_pos_site_id
 _symmetry_equiv_pos_as_xyz
  1  'x, y, z'
loop_
 _atom_site_type_symbol
 _atom_site_label
 _atom_site_symmetry_multiplicity
 _atom_site_fract_x
 _atom_site_fract_y
 _atom_site_fract_z
 _atom_site_occupancy
  Ho  Ho0  1  0.787214  0.750000  0.114547  1
  Ho  Ho1  1  0.212786  0.250000  0.885453  1
  H  H2  1  0.373941  0.750000  0.230392  1
  H  H3  1  0.155497  0.250000  0.305428  1
  H  H4  1  0.844503  0.750000  0.694572  1
  H  H5  1  0.626059  0.250000  0.769608  1
  Cl  Cl6  1  0.732406  0.250000  0.429841  1
  Cl  Cl7  1  0.267594  0.750000  0.570159  1
  O  O8  1  0.395552  0.750000  0.090293  1
  O  O9  1  0.052637  0.250000  0.162057  1
  O  O10  1  0.947363  0.750000  0.837943  1
  O  O11  1  0.604448  0.250000  0.909707  1
