# generated using pymatgen
data_SrTcN3
_symmetry_space_group_name_H-M   'P 1'
_cell_length_a   6.65380845
_cell_length_b   6.65380845
_cell_length_c   5.76897464
_cell_angle_alpha   90.00000000
_cell_angle_beta   90.00000000
_cell_angle_gamma   143.10083684
_symmetry_Int_Tables_number   1
_chemical_formula_structural   SrTcN3
_chemical_formula_sum   'Sr2 Tc2 N6'
_cell_volume   153.35081292
_cell_formula_units_Z   2
loop_
 _symmetry_equiv_pos_site_id
 _symmetry_equiv_pos_as_xyz
  1  'x, y, z'
loop_
 _atom_site_type_symbol
 _atom_site_label
 _atom_site_symmetry_multiplicity
 _atom_site_fract_x
 _atom_site_fract_y
 _atom_site_fract_z
 _atom_site_occupancy
  Sr  Sr0  1  0.370777  0.629223  0.750000  1
  Sr  Sr1  1  0.629223  0.370777  0.250000  1
  Tc  Tc2  1  0.904884  0.095116  0.250000  1
  Tc  Tc3  1  0.095116  0.904884  0.750000  1
  N  N4  1  0.847680  0.454004  0.750000  1
  N  N5  1  0.545996  0.152320  0.750000  1
  N  N6  1  0.000000  0.000000  0.500000  1
  N  N7  1  0.152320  0.545996  0.250000  1
  N  N8  1  0.454004  0.847680  0.250000  1
  N  N9  1  0.000000  0.000000  0.000000  1
