# generated using pymatgen
data_HfRu3
_symmetry_space_group_name_H-M   'P 1'
_cell_length_a   5.66451297
_cell_length_b   5.66451297
_cell_length_c   4.45928191
_cell_angle_alpha   90.00000000
_cell_angle_beta   90.00000000
_cell_angle_gamma   120.00000000
_symmetry_Int_Tables_number   1
_chemical_formula_structural   HfRu3
_chemical_formula_sum   'Hf2 Ru6'
_cell_volume   123.91409567
_cell_formula_units_Z   2
loop_
 _symmetry_equiv_pos_site_id
 _symmetry_equiv_pos_as_xyz
  1  'x, y, z'
loop_
 _atom_site_type_symbol
 _atom_site_label
 _atom_site_symmetry_multiplicity
 _atom_site_fract_x
 _atom_site_fract_y
 _atom_site_fract_z
 _atom_site_occupancy
  Hf  Hf0  1  0.333333  0.666667  0.750000  1
  Hf  Hf1  1  0.666667  0.333333  0.250000  1
  Ru  Ru2  1  0.164596  0.329191  0.250000  1
  Ru  Ru3  1  0.670809  0.835404  0.250000  1
  Ru  Ru4  1  0.164596  0.835404  0.250000  1
  Ru  Ru5  1  0.835404  0.670809  0.750000  1
  Ru  Ru6  1  0.329191  0.164596  0.750000  1
  Ru  Ru7  1  0.835404  0.164596  0.750000  1
