# generated using pymatgen
data_PW4Cl11
_symmetry_space_group_name_H-M   'P 1'
_cell_length_a   8.70436497
_cell_length_b   8.70436497
_cell_length_c   11.52383867
_cell_angle_alpha   90.00000000
_cell_angle_beta   90.00000000
_cell_angle_gamma   109.53978775
_symmetry_Int_Tables_number   1
_chemical_formula_structural   PW4Cl11
_chemical_formula_sum   'P2 W8 Cl22'
_cell_volume   822.83165607
_cell_formula_units_Z   2
loop_
 _symmetry_equiv_pos_site_id
 _symmetry_equiv_pos_as_xyz
  1  'x, y, z'
loop_
 _atom_site_type_symbol
 _atom_site_label
 _atom_site_symmetry_multiplicity
 _atom_site_fract_x
 _atom_site_fract_y
 _atom_site_fract_z
 _atom_site_occupancy
  P  P0  1  0.675836  0.324164  0.250000  1
  P  P1  1  0.324164  0.675836  0.750000  1
  W  W2  1  0.644661  0.094902  0.372148  1
  W  W3  1  0.094902  0.644661  0.627852  1
  W  W4  1  0.355339  0.905098  0.627852  1
  W  W5  1  0.905098  0.355339  0.372148  1
  W  W6  1  0.644661  0.094902  0.127852  1
  W  W7  1  0.094902  0.644661  0.872148  1
  W  W8  1  0.355339  0.905098  0.872148  1
  W  W9  1  0.905098  0.355339  0.127852  1
  Cl  Cl10  1  0.870012  0.129988  0.993920  1
  Cl  Cl11  1  0.129988  0.870012  0.006080  1
  Cl  Cl12  1  0.480292  0.178748  0.986543  1
  Cl  Cl13  1  0.178748  0.480292  0.013457  1
  Cl  Cl14  1  0.519708  0.821252  0.013457  1
  Cl  Cl15  1  0.821252  0.519708  0.986543  1
  Cl  Cl16  1  0.870012  0.129988  0.506080  1
  Cl  Cl17  1  0.129988  0.870012  0.493920  1
  Cl  Cl18  1  0.480292  0.178748  0.513457  1
  Cl  Cl19  1  0.178748  0.480292  0.486543  1
  Cl  Cl20  1  0.519708  0.821252  0.486543  1
  Cl  Cl21  1  0.821252  0.519708  0.513457  1
  Cl  Cl22  1  0.754990  0.931219  0.250000  1
  Cl  Cl23  1  0.931219  0.754990  0.750000  1
  Cl  Cl24  1  0.245010  0.068781  0.750000  1
  Cl  Cl25  1  0.068781  0.245010  0.250000  1
  Cl  Cl26  1  0.532103  0.467897  0.250000  1
  Cl  Cl27  1  0.467897  0.532103  0.750000  1
  Cl  Cl28  1  0.394911  0.989056  0.250000  1
  Cl  Cl29  1  0.989056  0.394911  0.750000  1
  Cl  Cl30  1  0.605089  0.010944  0.750000  1
  Cl  Cl31  1  0.010944  0.605089  0.250000  1
