# generated using pymatgen
data_EuMgF4
_symmetry_space_group_name_H-M   'P 1'
_cell_length_a   7.75317523
_cell_length_b   7.75317523
_cell_length_c   5.60793345
_cell_angle_alpha   90.00000000
_cell_angle_beta   90.00000000
_cell_angle_gamma   149.45177159
_symmetry_Int_Tables_number   1
_chemical_formula_structural   EuMgF4
_chemical_formula_sum   'Eu2 Mg2 F8'
_cell_volume   171.33691156
_cell_formula_units_Z   2
loop_
 _symmetry_equiv_pos_site_id
 _symmetry_equiv_pos_as_xyz
  1  'x, y, z'
loop_
 _atom_site_type_symbol
 _atom_site_label
 _atom_site_symmetry_multiplicity
 _atom_site_fract_x
 _atom_site_fract_y
 _atom_site_fract_z
 _atom_site_occupancy
  Eu  Eu0  1  0.332992  0.667008  0.250000  1
  Eu  Eu1  1  0.667008  0.332992  0.750000  1
  Mg  Mg2  1  0.911385  0.088615  0.750000  1
  Mg  Mg3  1  0.088615  0.911385  0.250000  1
  F  F4  1  0.000000  0.000000  0.000000  1
  F  F5  1  0.000000  0.000000  0.500000  1
  F  F6  1  0.813005  0.186995  0.503365  1
  F  F7  1  0.186995  0.813005  0.496635  1
  F  F8  1  0.600756  0.399244  0.250000  1
  F  F9  1  0.399244  0.600756  0.750000  1
  F  F10  1  0.813005  0.186995  0.996635  1
  F  F11  1  0.186995  0.813005  0.003365  1
