# generated using pymatgen
data_MgPt5
_symmetry_space_group_name_H-M   'P 1'
_cell_length_a   5.41268469
_cell_length_b   5.41268469
_cell_length_c   6.72740229
_cell_angle_alpha   74.20970732
_cell_angle_beta   105.79029268
_cell_angle_gamma   150.09207895
_symmetry_Int_Tables_number   1
_chemical_formula_structural   MgPt5
_chemical_formula_sum   'Mg1 Pt5'
_cell_volume   94.29392553
_cell_formula_units_Z   1
loop_
 _symmetry_equiv_pos_site_id
 _symmetry_equiv_pos_as_xyz
  1  'x, y, z'
loop_
 _atom_site_type_symbol
 _atom_site_label
 _atom_site_symmetry_multiplicity
 _atom_site_fract_x
 _atom_site_fract_y
 _atom_site_fract_z
 _atom_site_occupancy
  Mg  Mg0  1  0.611170  0.388830  0.721682  1
  Pt  Pt1  1  0.001204  0.998796  0.000024  1
  Pt  Pt2  1  0.273264  0.726736  0.044421  1
  Pt  Pt3  1  0.666033  0.333967  0.332268  1
  Pt  Pt4  1  0.947468  0.052532  0.397594  1
  Pt  Pt5  1  0.334194  0.665806  0.670678  1
