# generated using pymatgen
data_K3Sc
_symmetry_space_group_name_H-M   'P 1'
_cell_length_a   6.74173891
_cell_length_b   6.74173891
_cell_length_c   6.74173891
_cell_angle_alpha   60.00000000
_cell_angle_beta   60.00000000
_cell_angle_gamma   60.00000000
_symmetry_Int_Tables_number   1
_chemical_formula_structural   K3Sc
_chemical_formula_sum   'K3 Sc1'
_cell_volume   216.67100131
_cell_formula_units_Z   1
loop_
 _symmetry_equiv_pos_site_id
 _symmetry_equiv_pos_as_xyz
  1  'x, y, z'
loop_
 _atom_site_type_symbol
 _atom_site_label
 _atom_site_symmetry_multiplicity
 _atom_site_fract_x
 _atom_site_fract_y
 _atom_site_fract_z
 _atom_site_occupancy
  K  K0  1  0.750000  0.750000  0.750000  1
  K  K1  1  0.250000  0.250000  0.250000  1
  K  K2  1  0.500000  0.500000  0.500000  1
  Sc  Sc3  1  0.000000  0.000000  0.000000  1
