# generated using pymatgen
data_RbTcO4
_symmetry_space_group_name_H-M   'P 1'
_cell_length_a   8.00912481
_cell_length_b   8.00912481
_cell_length_c   8.00912481
_cell_angle_alpha   136.72215131
_cell_angle_beta   136.72215131
_cell_angle_gamma   62.86583199
_symmetry_Int_Tables_number   1
_chemical_formula_structural   RbTcO4
_chemical_formula_sum   'Rb2 Tc2 O8'
_cell_volume   238.43534026
_cell_formula_units_Z   2
loop_
 _symmetry_equiv_pos_site_id
 _symmetry_equiv_pos_as_xyz
  1  'x, y, z'
loop_
 _atom_site_type_symbol
 _atom_site_label
 _atom_site_symmetry_multiplicity
 _atom_site_fract_x
 _atom_site_fract_y
 _atom_site_fract_z
 _atom_site_occupancy
  Rb  Rb0  1  0.750000  0.250000  0.500000  1
  Rb  Rb1  1  0.000000  0.000000  0.000000  1
  Tc  Tc2  1  0.500000  0.500000  0.000000  1
  Tc  Tc3  1  0.250000  0.750000  0.500000  1
  O  O4  1  0.464569  0.355701  0.674435  1
  O  O5  1  0.540135  0.714569  0.608868  1
  O  O6  1  0.644299  0.318734  0.108868  1
  O  O7  1  0.681266  0.790135  0.325565  1
  O  O8  1  0.068734  0.459865  0.174435  1
  O  O9  1  0.105701  0.931266  0.391132  1
  O  O10  1  0.209865  0.535431  0.891132  1
  O  O11  1  0.285431  0.894299  0.825565  1
