# generated using pymatgen
data_YbPu3
_symmetry_space_group_name_H-M   'P 1'
_cell_length_a   6.02115733
_cell_length_b   6.02115733
_cell_length_c   6.02115733
_cell_angle_alpha   132.56243346
_cell_angle_beta   132.56243346
_cell_angle_gamma   69.34216181
_symmetry_Int_Tables_number   1
_chemical_formula_structural   YbPu3
_chemical_formula_sum   'Yb1 Pu3'
_cell_volume   116.19493060
_cell_formula_units_Z   1
loop_
 _symmetry_equiv_pos_site_id
 _symmetry_equiv_pos_as_xyz
  1  'x, y, z'
loop_
 _atom_site_type_symbol
 _atom_site_label
 _atom_site_symmetry_multiplicity
 _atom_site_fract_x
 _atom_site_fract_y
 _atom_site_fract_z
 _atom_site_occupancy
  Yb  Yb0  1  0.000000  0.000000  0.000000  1
  Pu  Pu1  1  0.250000  0.750000  0.500000  1
  Pu  Pu2  1  0.750000  0.250000  0.500000  1
  Pu  Pu3  1  0.500000  0.500000  0.000000  1
