# generated using pymatgen
data_Ag3AsS4
_symmetry_space_group_name_H-M   'P 1'
_cell_length_a   6.68988532
_cell_length_b   7.03246323
_cell_length_c   7.95420441
_cell_angle_alpha   90.00000000
_cell_angle_beta   90.00000000
_cell_angle_gamma   90.00000000
_symmetry_Int_Tables_number   1
_chemical_formula_structural   Ag3AsS4
_chemical_formula_sum   'Ag6 As2 S8'
_cell_volume   374.21646382
_cell_formula_units_Z   2
loop_
 _symmetry_equiv_pos_site_id
 _symmetry_equiv_pos_as_xyz
  1  'x, y, z'
loop_
 _atom_site_type_symbol
 _atom_site_label
 _atom_site_symmetry_multiplicity
 _atom_site_fract_x
 _atom_site_fract_y
 _atom_site_fract_z
 _atom_site_occupancy
  Ag  Ag0  1  0.988529  0.149157  0.500000  1
  Ag  Ag1  1  0.012965  0.683558  0.240676  1
  Ag  Ag2  1  0.512965  0.316442  0.259324  1
  Ag  Ag3  1  0.488529  0.850843  0.000000  1
  Ag  Ag4  1  0.512965  0.316442  0.740676  1
  Ag  Ag5  1  0.012965  0.683558  0.759324  1
  As  As6  1  0.497735  0.819521  0.500000  1
  As  As7  1  0.997735  0.180479  0.000000  1
  S  S8  1  0.390691  0.665281  0.729572  1
  S  S9  1  0.890691  0.334719  0.770428  1
  S  S10  1  0.890691  0.334719  0.229572  1
  S  S11  1  0.390691  0.665281  0.270428  1
  S  S12  1  0.329836  0.183527  0.000000  1
  S  S13  1  0.874489  0.886544  0.000000  1
  S  S14  1  0.829836  0.816473  0.500000  1
  S  S15  1  0.374489  0.113456  0.500000  1
