# generated using pymatgen
data_CsCaI3
_symmetry_space_group_name_H-M   'P 1'
_cell_length_a   6.23463237
_cell_length_b   6.23463237
_cell_length_c   6.23149908
_cell_angle_alpha   89.99261170
_cell_angle_beta   90.00738830
_cell_angle_gamma   90.00239595
_symmetry_Int_Tables_number   1
_chemical_formula_structural   CsCaI3
_chemical_formula_sum   'Cs1 Ca1 I3'
_cell_volume   242.22235816
_cell_formula_units_Z   1
loop_
 _symmetry_equiv_pos_site_id
 _symmetry_equiv_pos_as_xyz
  1  'x, y, z'
loop_
 _atom_site_type_symbol
 _atom_site_label
 _atom_site_symmetry_multiplicity
 _atom_site_fract_x
 _atom_site_fract_y
 _atom_site_fract_z
 _atom_site_occupancy
  Cs  Cs0  1  0.000171  0.999829  0.002020  1
  Ca  Ca1  1  0.505202  0.494798  0.517425  1
  I  I2  1  0.503799  0.998891  0.513168  1
  I  I3  1  0.492636  0.507364  0.016330  1
  I  I4  1  0.001109  0.496201  0.513168  1
