# generated using pymatgen
data_Al6Cd4TeO12
_symmetry_space_group_name_H-M   'P 1'
_cell_length_a   7.86202960
_cell_length_b   7.86202960
_cell_length_c   7.86202960
_cell_angle_alpha   109.47122063
_cell_angle_beta   109.47122063
_cell_angle_gamma   109.47122063
_symmetry_Int_Tables_number   1
_chemical_formula_structural   Al6Cd4TeO12
_chemical_formula_sum   'Al6 Cd4 Te1 O12'
_cell_volume   374.09519759
_cell_formula_units_Z   1
loop_
 _symmetry_equiv_pos_site_id
 _symmetry_equiv_pos_as_xyz
  1  'x, y, z'
loop_
 _atom_site_type_symbol
 _atom_site_label
 _atom_site_symmetry_multiplicity
 _atom_site_fract_x
 _atom_site_fract_y
 _atom_site_fract_z
 _atom_site_occupancy
  Al  Al0  1  0.250000  0.750000  0.500000  1
  Al  Al1  1  0.750000  0.250000  0.500000  1
  Al  Al2  1  0.250000  0.500000  0.750000  1
  Al  Al3  1  0.750000  0.500000  0.250000  1
  Al  Al4  1  0.500000  0.250000  0.750000  1
  Al  Al5  1  0.500000  0.750000  0.250000  1
  Cd  Cd6  1  0.358586  0.358586  0.358586  1
  Cd  Cd7  1  1.000000  1.000000  0.641414  1
  Cd  Cd8  1  0.641414  1.000000  1.000000  1
  Cd  Cd9  1  1.000000  0.641414  0.000000  1
  Te  Te10  1  0.000000  0.000000  0.000000  1
  O  O11  1  0.435473  0.722070  0.000000  1
  O  O12  1  0.277930  0.277930  0.713404  1
  O  O13  1  0.564527  0.286596  0.564527  1
  O  O14  1  0.286596  0.564527  0.564527  1
  O  O15  1  0.722070  1.000000  0.435473  1
  O  O16  1  0.277930  0.713404  0.277930  1
  O  O17  1  0.713404  0.277930  0.277930  1
  O  O18  1  1.000000  0.722070  0.435473  1
  O  O19  1  0.722070  0.435473  0.000000  1
  O  O20  1  1.000000  0.435473  0.722070  1
  O  O21  1  0.564527  0.564527  0.286596  1
  O  O22  1  0.435473  1.000000  0.722070  1
