# generated using pymatgen
data_ZnH
_symmetry_space_group_name_H-M   'P 1'
_cell_length_a   2.69262815
_cell_length_b   2.69262815
_cell_length_c   6.58646877
_cell_angle_alpha   90.00000000
_cell_angle_beta   90.00000000
_cell_angle_gamma   120.00000000
_symmetry_Int_Tables_number   1
_chemical_formula_structural   ZnH
_chemical_formula_sum   'Zn2 H2'
_cell_volume   41.35576257
_cell_formula_units_Z   2
loop_
 _symmetry_equiv_pos_site_id
 _symmetry_equiv_pos_as_xyz
  1  'x, y, z'
loop_
 _atom_site_type_symbol
 _atom_site_label
 _atom_site_symmetry_multiplicity
 _atom_site_fract_x
 _atom_site_fract_y
 _atom_site_fract_z
 _atom_site_occupancy
  Zn  Zn0  1  0.333333  0.666667  0.323631  1
  Zn  Zn1  1  0.666667  0.333333  0.823631  1
  H  H2  1  0.666667  0.333333  0.551370  1
  H  H3  1  0.333333  0.666667  0.051370  1
