# generated using pymatgen
data_CuO2F
_symmetry_space_group_name_H-M   'P 1'
_cell_length_a   3.18199113
_cell_length_b   4.62407114
_cell_length_c   5.89627473
_cell_angle_alpha   90.00000000
_cell_angle_beta   90.00000000
_cell_angle_gamma   90.00000000
_symmetry_Int_Tables_number   1
_chemical_formula_structural   CuO2F
_chemical_formula_sum   'Cu2 O4 F2'
_cell_volume   86.75633207
_cell_formula_units_Z   2
loop_
 _symmetry_equiv_pos_site_id
 _symmetry_equiv_pos_as_xyz
  1  'x, y, z'
loop_
 _atom_site_type_symbol
 _atom_site_label
 _atom_site_symmetry_multiplicity
 _atom_site_fract_x
 _atom_site_fract_y
 _atom_site_fract_z
 _atom_site_occupancy
  Cu  Cu0  1  0.000000  0.676116  0.793536  1
  Cu  Cu1  1  0.500000  0.176116  0.206464  1
  O  O2  1  0.000000  0.996109  0.381283  1
  O  O3  1  0.500000  0.496109  0.618717  1
  O  O4  1  0.500000  0.521362  0.396633  1
  O  O5  1  0.000000  0.021362  0.603367  1
  F  F6  1  0.000000  0.351883  0.017028  1
  F  F7  1  0.500000  0.851883  0.982972  1
