# generated using pymatgen
data_Si3N2
_symmetry_space_group_name_H-M   'P 1'
_cell_length_a   6.70034370
_cell_length_b   6.70034370
_cell_length_c   6.70034370
_cell_angle_alpha   90.00000000
_cell_angle_beta   90.00000000
_cell_angle_gamma   90.00000000
_symmetry_Int_Tables_number   1
_chemical_formula_structural   Si3N2
_chemical_formula_sum   'Si12 N8'
_cell_volume   300.80928845
_cell_formula_units_Z   4
loop_
 _symmetry_equiv_pos_site_id
 _symmetry_equiv_pos_as_xyz
  1  'x, y, z'
loop_
 _atom_site_type_symbol
 _atom_site_label
 _atom_site_symmetry_multiplicity
 _atom_site_fract_x
 _atom_site_fract_y
 _atom_site_fract_z
 _atom_site_occupancy
  Si  Si0  1  0.321722  0.321722  0.000000  1
  Si  Si1  1  0.678278  0.678278  0.000000  1
  Si  Si2  1  0.678278  0.321722  0.000000  1
  Si  Si3  1  0.321722  0.678278  0.000000  1
  Si  Si4  1  0.000000  0.321722  0.678278  1
  Si  Si5  1  0.000000  0.678278  0.321722  1
  Si  Si6  1  0.000000  0.678278  0.678278  1
  Si  Si7  1  0.000000  0.321722  0.321722  1
  Si  Si8  1  0.321722  0.000000  0.678278  1
  Si  Si9  1  0.678278  0.000000  0.321722  1
  Si  Si10  1  0.321722  0.000000  0.321722  1
  Si  Si11  1  0.678278  0.000000  0.678278  1
  N  N12  1  0.221417  0.221417  0.778583  1
  N  N13  1  0.778583  0.778583  0.778583  1
  N  N14  1  0.778583  0.221417  0.221417  1
  N  N15  1  0.221417  0.778583  0.221417  1
  N  N16  1  0.778583  0.778583  0.221417  1
  N  N17  1  0.221417  0.221417  0.221417  1
  N  N18  1  0.221417  0.778583  0.778583  1
  N  N19  1  0.778583  0.221417  0.778583  1
