# generated using pymatgen
data_AgPdO2
_symmetry_space_group_name_H-M   'P 1'
_cell_length_a   3.05443000
_cell_length_b   3.40744000
_cell_length_c   5.49632000
_cell_angle_alpha   90.00000000
_cell_angle_beta   90.00000000
_cell_angle_gamma   90.00000000
_symmetry_Int_Tables_number   1
_chemical_formula_structural   AgPdO2
_chemical_formula_sum   'Ag1 Pd1 O2'
_cell_volume   57.20452762
_cell_formula_units_Z   1
loop_
 _symmetry_equiv_pos_site_id
 _symmetry_equiv_pos_as_xyz
  1  'x, y, z'
loop_
 _atom_site_type_symbol
 _atom_site_label
 _atom_site_symmetry_multiplicity
 _atom_site_fract_x
 _atom_site_fract_y
 _atom_site_fract_z
 _atom_site_occupancy
  Ag  Ag0  1  0.500000  0.500000  0.500000  1
  Pd  Pd1  1  0.000000  0.000000  0.000000  1
  O  O2  1  0.500000  0.000000  0.244620  1
  O  O3  1  0.500000  0.000000  0.755380  1
