# generated using pymatgen
data_AgBiO2
_symmetry_space_group_name_H-M   'P 1'
_cell_length_a   6.23222998
_cell_length_b   3.55443000
_cell_length_c   6.87579000
_cell_angle_alpha   90.00000000
_cell_angle_beta   98.79997287
_cell_angle_gamma   90.00000000
_symmetry_Int_Tables_number   1
_chemical_formula_structural   AgBiO2
_chemical_formula_sum   'Ag2 Bi2 O4'
_cell_volume   150.51971781
_cell_formula_units_Z   2
loop_
 _symmetry_equiv_pos_site_id
 _symmetry_equiv_pos_as_xyz
  1  'x, y, z'
loop_
 _atom_site_type_symbol
 _atom_site_label
 _atom_site_symmetry_multiplicity
 _atom_site_fract_x
 _atom_site_fract_y
 _atom_site_fract_z
 _atom_site_occupancy
  Ag  Ag0  1  0.813740  0.750000  0.910220  1
  Ag  Ag1  1  0.186260  0.250000  0.089780  1
  Bi  Bi2  1  0.752940  0.250000  0.387980  1
  Bi  Bi3  1  0.247060  0.750000  0.612020  1
  O  O4  1  0.288170  0.250000  0.812900  1
  O  O5  1  0.711830  0.750000  0.187100  1
  O  O6  1  0.097410  0.250000  0.375880  1
  O  O7  1  0.902590  0.750000  0.624120  1
