# generated using pymatgen
data_C3N4
_symmetry_space_group_name_H-M   'P 1'
_cell_length_a   4.71589308
_cell_length_b   4.71589308
_cell_length_c   10.18895915
_cell_angle_alpha   90.00000000
_cell_angle_beta   90.00000000
_cell_angle_gamma   120.00000000
_symmetry_Int_Tables_number   1
_chemical_formula_structural   C3N4
_chemical_formula_sum   'C9 N12'
_cell_volume   196.24036917
_cell_formula_units_Z   3
loop_
 _symmetry_equiv_pos_site_id
 _symmetry_equiv_pos_as_xyz
  1  'x, y, z'
loop_
 _atom_site_type_symbol
 _atom_site_label
 _atom_site_symmetry_multiplicity
 _atom_site_fract_x
 _atom_site_fract_y
 _atom_site_fract_z
 _atom_site_occupancy
  C  C0  1  0.836721  0.971838  0.321840  1
  C  C1  1  0.308024  0.444391  0.332977  1
  C  C2  1  0.837705  0.446328  0.345024  1
  C  C3  1  0.553672  0.391377  0.678358  1
  C  C4  1  0.028162  0.864883  0.655174  1
  C  C5  1  0.555609  0.863633  0.666311  1
  C  C6  1  0.136367  0.691976  0.999644  1
  C  C7  1  0.608623  0.162295  0.011691  1
  C  C8  1  0.135117  0.163279  0.988507  1
  N  N9  1  0.869030  0.025537  0.626964  1
  N  N10  1  0.393484  0.551456  0.705562  1
  N  N11  1  0.874630  0.544267  0.667063  1
  N  N12  1  0.455733  0.330363  0.000396  1
  N  N13  1  0.974463  0.843494  0.960298  1
  N  N14  1  0.448544  0.842028  0.038896  1
  N  N15  1  0.157972  0.606516  0.372229  1
  N  N16  1  0.669637  0.125370  0.333730  1
  N  N17  1  0.156506  0.130970  0.293631  1
  N  N18  1  0.662670  0.621698  0.333804  1
  N  N19  1  0.378302  0.040972  0.667137  1
  N  N20  1  0.959028  0.337330  0.000470  1
