# generated using pymatgen
data_KGd(CO3)2
_symmetry_space_group_name_H-M   'P 1'
_cell_length_a   6.49848306
_cell_length_b   6.49848306
_cell_length_c   7.12025625
_cell_angle_alpha   76.49698374
_cell_angle_beta   103.50301626
_cell_angle_gamma   82.56883870
_symmetry_Int_Tables_number   1
_chemical_formula_structural   KGd(CO3)2
_chemical_formula_sum   'K2 Gd2 C4 O12'
_cell_volume   278.86964143
_cell_formula_units_Z   2
loop_
 _symmetry_equiv_pos_site_id
 _symmetry_equiv_pos_as_xyz
  1  'x, y, z'
loop_
 _atom_site_type_symbol
 _atom_site_label
 _atom_site_symmetry_multiplicity
 _atom_site_fract_x
 _atom_site_fract_y
 _atom_site_fract_z
 _atom_site_occupancy
  K  K0  1  0.878036  0.878036  0.250000  1
  K  K1  1  0.121964  0.121964  0.750000  1
  Gd  Gd2  1  0.404793  0.404793  0.250000  1
  Gd  Gd3  1  0.595207  0.595207  0.750000  1
  C  C4  1  0.607287  0.144088  0.753510  1
  C  C5  1  0.144088  0.607287  0.746490  1
  C  C6  1  0.392713  0.855912  0.246490  1
  C  C7  1  0.855912  0.392713  0.253510  1
  O  O8  1  0.054384  0.404433  0.274339  1
  O  O9  1  0.404433  0.054384  0.225661  1
  O  O10  1  0.945616  0.595567  0.725661  1
  O  O11  1  0.595567  0.945616  0.774339  1
  O  O12  1  0.792730  0.252567  0.378274  1
  O  O13  1  0.252567  0.792730  0.121726  1
  O  O14  1  0.207270  0.747433  0.621726  1
  O  O15  1  0.747433  0.207270  0.878274  1
  O  O16  1  0.702651  0.530510  0.105495  1
  O  O17  1  0.530510  0.702651  0.394505  1
  O  O18  1  0.297349  0.469490  0.894505  1
  O  O19  1  0.469490  0.297349  0.605495  1
