# generated using pymatgen
data_YbMg3
_symmetry_space_group_name_H-M   'P 1'
_cell_length_a   6.83173010
_cell_length_b   6.83173010
_cell_length_c   5.34469579
_cell_angle_alpha   90.00000000
_cell_angle_beta   90.00000000
_cell_angle_gamma   120.00000000
_symmetry_Int_Tables_number   1
_chemical_formula_structural   YbMg3
_chemical_formula_sum   'Yb2 Mg6'
_cell_volume   216.03047651
_cell_formula_units_Z   2
loop_
 _symmetry_equiv_pos_site_id
 _symmetry_equiv_pos_as_xyz
  1  'x, y, z'
loop_
 _atom_site_type_symbol
 _atom_site_label
 _atom_site_symmetry_multiplicity
 _atom_site_fract_x
 _atom_site_fract_y
 _atom_site_fract_z
 _atom_site_occupancy
  Yb  Yb0  1  0.666667  0.333333  0.250000  1
  Yb  Yb1  1  0.333333  0.666667  0.750000  1
  Mg  Mg2  1  0.159255  0.318509  0.250000  1
  Mg  Mg3  1  0.159255  0.840745  0.250000  1
  Mg  Mg4  1  0.681491  0.840745  0.250000  1
  Mg  Mg5  1  0.318509  0.159255  0.750000  1
  Mg  Mg6  1  0.840745  0.159255  0.750000  1
  Mg  Mg7  1  0.840745  0.681491  0.750000  1
