# generated using pymatgen
data_RuRh3
_symmetry_space_group_name_H-M   'P 1'
_cell_length_a   5.47691094
_cell_length_b   5.47691094
_cell_length_c   4.37095722
_cell_angle_alpha   90.00000000
_cell_angle_beta   90.00000000
_cell_angle_gamma   120.00000000
_symmetry_Int_Tables_number   1
_chemical_formula_structural   RuRh3
_chemical_formula_sum   'Ru2 Rh6'
_cell_volume   113.54775344
_cell_formula_units_Z   2
loop_
 _symmetry_equiv_pos_site_id
 _symmetry_equiv_pos_as_xyz
  1  'x, y, z'
loop_
 _atom_site_type_symbol
 _atom_site_label
 _atom_site_symmetry_multiplicity
 _atom_site_fract_x
 _atom_site_fract_y
 _atom_site_fract_z
 _atom_site_occupancy
  Ru  Ru0  1  0.333333  0.666667  0.750000  1
  Ru  Ru1  1  0.666667  0.333333  0.250000  1
  Rh  Rh2  1  0.167460  0.334920  0.250000  1
  Rh  Rh3  1  0.665080  0.832540  0.250000  1
  Rh  Rh4  1  0.167460  0.832540  0.250000  1
  Rh  Rh5  1  0.832540  0.665080  0.750000  1
  Rh  Rh6  1  0.334920  0.167460  0.750000  1
  Rh  Rh7  1  0.832540  0.167460  0.750000  1
