# generated using pymatgen
data_TbNi
_symmetry_space_group_name_H-M   'P 1'
_cell_length_a   5.43752354
_cell_length_b   5.43752354
_cell_length_c   4.26890460
_cell_angle_alpha   90.00000000
_cell_angle_beta   90.00000000
_cell_angle_gamma   140.20329489
_symmetry_Int_Tables_number   1
_chemical_formula_structural   TbNi
_chemical_formula_sum   'Tb2 Ni2'
_cell_volume   80.78731608
_cell_formula_units_Z   2
loop_
 _symmetry_equiv_pos_site_id
 _symmetry_equiv_pos_as_xyz
  1  'x, y, z'
loop_
 _atom_site_type_symbol
 _atom_site_label
 _atom_site_symmetry_multiplicity
 _atom_site_fract_x
 _atom_site_fract_y
 _atom_site_fract_z
 _atom_site_occupancy
  Tb  Tb0  1  0.138814  0.861186  0.250000  1
  Tb  Tb1  1  0.861186  0.138814  0.750000  1
  Ni  Ni2  1  0.427271  0.572729  0.250000  1
  Ni  Ni3  1  0.572729  0.427271  0.750000  1
