# generated using pymatgen
data_SmBi3
_symmetry_space_group_name_H-M   'P 1'
_cell_length_a   6.48566444
_cell_length_b   6.48566444
_cell_length_c   6.48566444
_cell_angle_alpha   137.40390822
_cell_angle_beta   137.40390822
_cell_angle_gamma   61.81717836
_symmetry_Int_Tables_number   1
_chemical_formula_structural   SmBi3
_chemical_formula_sum   'Sm1 Bi3'
_cell_volume   123.52156612
_cell_formula_units_Z   1
loop_
 _symmetry_equiv_pos_site_id
 _symmetry_equiv_pos_as_xyz
  1  'x, y, z'
loop_
 _atom_site_type_symbol
 _atom_site_label
 _atom_site_symmetry_multiplicity
 _atom_site_fract_x
 _atom_site_fract_y
 _atom_site_fract_z
 _atom_site_occupancy
  Sm  Sm0  1  0.000000  0.000000  0.000000  1
  Bi  Bi1  1  0.250000  0.750000  0.500000  1
  Bi  Bi2  1  0.750000  0.250000  0.500000  1
  Bi  Bi3  1  0.500000  0.500000  0.000000  1
