# generated using pymatgen
data_Li2FeCu(PO4)2
_symmetry_space_group_name_H-M   'P 1'
_cell_length_a   4.71349186
_cell_length_b   6.04845315
_cell_length_c   10.08065970
_cell_angle_alpha   90.00000000
_cell_angle_beta   91.27657378
_cell_angle_gamma   90.00000000
_symmetry_Int_Tables_number   1
_chemical_formula_structural   Li2FeCu(PO4)2
_chemical_formula_sum   'Li4 Fe2 Cu2 P4 O16'
_cell_volume   287.32157093
_cell_formula_units_Z   2
loop_
 _symmetry_equiv_pos_site_id
 _symmetry_equiv_pos_as_xyz
  1  'x, y, z'
loop_
 _atom_site_type_symbol
 _atom_site_label
 _atom_site_symmetry_multiplicity
 _atom_site_fract_x
 _atom_site_fract_y
 _atom_site_fract_z
 _atom_site_occupancy
  Li  Li0  1  0.000000  0.000000  0.000000  1
  Li  Li1  1  0.000000  0.500000  0.000000  1
  Li  Li2  1  0.500000  0.000000  0.500000  1
  Li  Li3  1  0.500000  0.500000  0.500000  1
  Fe  Fe4  1  0.478698  0.750000  0.218908  1
  Fe  Fe5  1  0.521302  0.250000  0.781092  1
  Cu  Cu6  1  0.948541  0.250000  0.284592  1
  Cu  Cu7  1  0.051459  0.750000  0.715408  1
  P  P8  1  0.419336  0.250000  0.096927  1
  P  P9  1  0.920744  0.750000  0.406940  1
  P  P10  1  0.079256  0.250000  0.593060  1
  P  P11  1  0.580664  0.750000  0.903073  1
  O  O12  1  0.707803  0.750000  0.046434  1
  O  O13  1  0.749602  0.250000  0.101579  1
  O  O14  1  0.293974  0.041462  0.165035  1
  O  O15  1  0.293974  0.458538  0.165035  1
  O  O16  1  0.775568  0.548430  0.334355  1
  O  O17  1  0.775568  0.951570  0.334355  1
  O  O18  1  0.244155  0.750000  0.403684  1
  O  O19  1  0.193801  0.250000  0.448463  1
  O  O20  1  0.806199  0.750000  0.551537  1
  O  O21  1  0.755845  0.250000  0.596316  1
  O  O22  1  0.224432  0.048430  0.665645  1
  O  O23  1  0.224432  0.451570  0.665645  1
  O  O24  1  0.706026  0.541462  0.834965  1
  O  O25  1  0.706026  0.958538  0.834965  1
  O  O26  1  0.250398  0.750000  0.898421  1
  O  O27  1  0.292197  0.250000  0.953566  1
