# generated using pymatgen
data_Ac3Pr
_symmetry_space_group_name_H-M   'P 1'
_cell_length_a   7.89222243
_cell_length_b   7.89222243
_cell_length_c   6.36921742
_cell_angle_alpha   90.00000000
_cell_angle_beta   90.00000000
_cell_angle_gamma   120.00000000
_symmetry_Int_Tables_number   1
_chemical_formula_structural   Ac3Pr
_chemical_formula_sum   'Ac6 Pr2'
_cell_volume   343.57008252
_cell_formula_units_Z   2
loop_
 _symmetry_equiv_pos_site_id
 _symmetry_equiv_pos_as_xyz
  1  'x, y, z'
loop_
 _atom_site_type_symbol
 _atom_site_label
 _atom_site_symmetry_multiplicity
 _atom_site_fract_x
 _atom_site_fract_y
 _atom_site_fract_z
 _atom_site_occupancy
  Ac  Ac0  1  0.168164  0.336328  0.250000  1
  Ac  Ac1  1  0.663672  0.831836  0.250000  1
  Ac  Ac2  1  0.168164  0.831836  0.250000  1
  Ac  Ac3  1  0.831836  0.663672  0.750000  1
  Ac  Ac4  1  0.336328  0.168164  0.750000  1
  Ac  Ac5  1  0.831836  0.168164  0.750000  1
  Pr  Pr6  1  0.333333  0.666667  0.750000  1
  Pr  Pr7  1  0.666667  0.333333  0.250000  1
