# generated using pymatgen
data_TbH3
_symmetry_space_group_name_H-M   'P 1'
_cell_length_a   6.37635864
_cell_length_b   6.37635864
_cell_length_c   6.62698612
_cell_angle_alpha   90.00000000
_cell_angle_beta   90.00000000
_cell_angle_gamma   120.00000000
_symmetry_Int_Tables_number   1
_chemical_formula_structural   TbH3
_chemical_formula_sum   'Tb6 H18'
_cell_volume   233.34159626
_cell_formula_units_Z   6
loop_
 _symmetry_equiv_pos_site_id
 _symmetry_equiv_pos_as_xyz
  1  'x, y, z'
loop_
 _atom_site_type_symbol
 _atom_site_label
 _atom_site_symmetry_multiplicity
 _atom_site_fract_x
 _atom_site_fract_y
 _atom_site_fract_z
 _atom_site_occupancy
  Tb  Tb0  1  0.000000  0.663404  0.750000  1
  Tb  Tb1  1  0.336596  0.336596  0.750000  1
  Tb  Tb2  1  0.663404  0.000000  0.750000  1
  Tb  Tb3  1  0.663404  0.663404  0.250000  1
  Tb  Tb4  1  0.000000  0.336596  0.250000  1
  Tb  Tb5  1  0.336596  0.000000  0.250000  1
  H  H6  1  0.678218  0.651099  0.592957  1
  H  H7  1  0.348901  0.027119  0.592957  1
  H  H8  1  0.972881  0.321782  0.592957  1
  H  H9  1  0.333333  0.666667  0.681034  1
  H  H10  1  0.000000  0.000000  0.750000  1
  H  H11  1  0.666667  0.333333  0.818966  1
  H  H12  1  0.027119  0.348901  0.907043  1
  H  H13  1  0.651099  0.678218  0.907043  1
  H  H14  1  0.321782  0.972881  0.907043  1
  H  H15  1  0.678218  0.027119  0.092957  1
  H  H16  1  0.348901  0.321782  0.092957  1
  H  H17  1  0.972881  0.651099  0.092957  1
  H  H18  1  0.333333  0.666667  0.181034  1
  H  H19  1  0.000000  0.000000  0.250000  1
  H  H20  1  0.666667  0.333333  0.318966  1
  H  H21  1  0.027119  0.678218  0.407043  1
  H  H22  1  0.651099  0.972881  0.407043  1
  H  H23  1  0.321782  0.348901  0.407043  1
