# generated using pymatgen
data_Mg5As
_symmetry_space_group_name_H-M   'P 1'
_cell_length_a   6.04194968
_cell_length_b   6.04194968
_cell_length_c   7.42785250
_cell_angle_alpha   73.94925667
_cell_angle_beta   106.05074333
_cell_angle_gamma   149.83410632
_symmetry_Int_Tables_number   1
_chemical_formula_structural   Mg5As
_chemical_formula_sum   'Mg5 As1'
_cell_volume   130.55092242
_cell_formula_units_Z   1
loop_
 _symmetry_equiv_pos_site_id
 _symmetry_equiv_pos_as_xyz
  1  'x, y, z'
loop_
 _atom_site_type_symbol
 _atom_site_label
 _atom_site_symmetry_multiplicity
 _atom_site_fract_x
 _atom_site_fract_y
 _atom_site_fract_z
 _atom_site_occupancy
  Mg  Mg0  1  0.288197  0.711803  0.061534  1
  Mg  Mg1  1  0.667425  0.332575  0.324548  1
  Mg  Mg2  1  0.952033  0.047967  0.417847  1
  Mg  Mg3  1  0.314471  0.685529  0.669170  1
  Mg  Mg4  1  0.004333  0.995667  0.978879  1
  As  As5  1  0.606878  0.393122  0.714689  1
