# generated using pymatgen
data_CaSn4(PO4)6
_symmetry_space_group_name_H-M   'P 1'
_cell_length_a   9.14605997
_cell_length_b   9.14605997
_cell_length_c   9.14605997
_cell_angle_alpha   54.81709545
_cell_angle_beta   54.81709545
_cell_angle_gamma   54.81709545
_symmetry_Int_Tables_number   1
_chemical_formula_structural   CaSn4(PO4)6
_chemical_formula_sum   'Ca1 Sn4 P6 O24'
_cell_volume   475.70099593
_cell_formula_units_Z   1
loop_
 _symmetry_equiv_pos_site_id
 _symmetry_equiv_pos_as_xyz
  1  'x, y, z'
loop_
 _atom_site_type_symbol
 _atom_site_label
 _atom_site_symmetry_multiplicity
 _atom_site_fract_x
 _atom_site_fract_y
 _atom_site_fract_z
 _atom_site_occupancy
  Ca  Ca0  1  0.000000  0.000000  0.000000  1
  Sn  Sn1  1  0.650824  0.650824  0.650824  1
  Sn  Sn2  1  0.349176  0.349176  0.349176  1
  Sn  Sn3  1  0.852166  0.852166  0.852166  1
  Sn  Sn4  1  0.147834  0.147834  0.147834  1
  P  P5  1  0.962002  0.249271  0.543120  1
  P  P6  1  0.543120  0.962002  0.249271  1
  P  P7  1  0.249271  0.543120  0.962002  1
  P  P8  1  0.037998  0.750729  0.456880  1
  P  P9  1  0.456880  0.037998  0.750729  1
  P  P10  1  0.750729  0.456880  0.037998  1
  O  O11  1  0.984032  0.199556  0.395617  1
  O  O12  1  0.395617  0.984032  0.199556  1
  O  O13  1  0.199556  0.395617  0.984032  1
  O  O14  1  0.015968  0.800444  0.604383  1
  O  O15  1  0.604383  0.015968  0.800444  1
  O  O16  1  0.800444  0.604383  0.015968  1
  O  O17  1  0.158124  0.206176  0.532905  1
  O  O18  1  0.532905  0.158124  0.206176  1
  O  O19  1  0.206176  0.532905  0.158124  1
  O  O20  1  0.841876  0.793824  0.467095  1
  O  O21  1  0.467095  0.841876  0.793824  1
  O  O22  1  0.793824  0.467095  0.841876  1
  O  O23  1  0.827092  0.459846  0.513565  1
  O  O24  1  0.513565  0.827092  0.459846  1
  O  O25  1  0.459846  0.513565  0.827092  1
  O  O26  1  0.172908  0.540154  0.486435  1
  O  O27  1  0.486435  0.172908  0.540154  1
  O  O28  1  0.540154  0.486435  0.172908  1
  O  O29  1  0.876819  0.112910  0.751209  1
  O  O30  1  0.751209  0.876819  0.112910  1
  O  O31  1  0.112910  0.751209  0.876819  1
  O  O32  1  0.123181  0.887090  0.248791  1
  O  O33  1  0.248791  0.123181  0.887090  1
  O  O34  1  0.887090  0.248791  0.123181  1
