# generated using pymatgen
data_La3ZrSb5
_symmetry_space_group_name_H-M   'P 1'
_cell_length_a   9.65480115
_cell_length_b   9.65480115
_cell_length_c   6.42124407
_cell_angle_alpha   90.00000000
_cell_angle_beta   90.00000000
_cell_angle_gamma   120.00000000
_symmetry_Int_Tables_number   1
_chemical_formula_structural   La3ZrSb5
_chemical_formula_sum   'La6 Zr2 Sb10'
_cell_volume   518.36596175
_cell_formula_units_Z   2
loop_
 _symmetry_equiv_pos_site_id
 _symmetry_equiv_pos_as_xyz
  1  'x, y, z'
loop_
 _atom_site_type_symbol
 _atom_site_label
 _atom_site_symmetry_multiplicity
 _atom_site_fract_x
 _atom_site_fract_y
 _atom_site_fract_z
 _atom_site_occupancy
  La  La0  1  0.382300  0.000000  0.750000  1
  La  La1  1  0.382300  0.382300  0.250000  1
  La  La2  1  0.000000  0.617700  0.250000  1
  La  La3  1  0.000000  0.382300  0.750000  1
  La  La4  1  0.617700  0.617700  0.750000  1
  La  La5  1  0.617700  0.000000  0.250000  1
  Zr  Zr6  1  0.000000  0.000000  0.000000  1
  Zr  Zr7  1  0.000000  0.000000  0.500000  1
  Sb  Sb8  1  0.666667  0.333333  0.500000  1
  Sb  Sb9  1  0.333333  0.666667  0.000000  1
  Sb  Sb10  1  0.740103  0.000000  0.750000  1
  Sb  Sb11  1  0.740103  0.740103  0.250000  1
  Sb  Sb12  1  0.333333  0.666667  0.500000  1
  Sb  Sb13  1  0.666667  0.333333  0.000000  1
  Sb  Sb14  1  0.259897  0.000000  0.250000  1
  Sb  Sb15  1  0.259897  0.259897  0.750000  1
  Sb  Sb16  1  0.000000  0.740103  0.750000  1
  Sb  Sb17  1  0.000000  0.259897  0.250000  1
