# generated using pymatgen
data_ScSn3
_symmetry_space_group_name_H-M   'P 1'
_cell_length_a   6.35622909
_cell_length_b   6.35622909
_cell_length_c   5.74645851
_cell_angle_alpha   90.00000000
_cell_angle_beta   90.00000000
_cell_angle_gamma   120.00000000
_symmetry_Int_Tables_number   1
_chemical_formula_structural   ScSn3
_chemical_formula_sum   'Sc2 Sn6'
_cell_volume   201.06199648
_cell_formula_units_Z   2
loop_
 _symmetry_equiv_pos_site_id
 _symmetry_equiv_pos_as_xyz
  1  'x, y, z'
loop_
 _atom_site_type_symbol
 _atom_site_label
 _atom_site_symmetry_multiplicity
 _atom_site_fract_x
 _atom_site_fract_y
 _atom_site_fract_z
 _atom_site_occupancy
  Sc  Sc0  1  0.333333  0.666667  0.750000  1
  Sc  Sc1  1  0.666667  0.333333  0.250000  1
  Sn  Sn2  1  0.167911  0.335821  0.250000  1
  Sn  Sn3  1  0.664179  0.832089  0.250000  1
  Sn  Sn4  1  0.167911  0.832089  0.250000  1
  Sn  Sn5  1  0.832089  0.664179  0.750000  1
  Sn  Sn6  1  0.335821  0.167911  0.750000  1
  Sn  Sn7  1  0.832089  0.167911  0.750000  1
