# generated using pymatgen
data_LaMnN3
_symmetry_space_group_name_H-M   'P 1'
_cell_length_a   5.81590379
_cell_length_b   5.81590379
_cell_length_c   7.09218778
_cell_angle_alpha   62.65002840
_cell_angle_beta   117.34997160
_cell_angle_gamma   139.05911124
_symmetry_Int_Tables_number   1
_chemical_formula_structural   LaMnN3
_chemical_formula_sum   'La2 Mn2 N6'
_cell_volume   136.99672304
_cell_formula_units_Z   2
loop_
 _symmetry_equiv_pos_site_id
 _symmetry_equiv_pos_as_xyz
  1  'x, y, z'
loop_
 _atom_site_type_symbol
 _atom_site_label
 _atom_site_symmetry_multiplicity
 _atom_site_fract_x
 _atom_site_fract_y
 _atom_site_fract_z
 _atom_site_occupancy
  La  La0  1  0.280143  0.719857  0.762236  1
  La  La1  1  0.719857  0.280143  0.237764  1
  Mn  Mn2  1  0.541293  0.458707  0.687080  1
  Mn  Mn3  1  0.458707  0.541293  0.312920  1
  N  N4  1  0.927498  0.758998  0.878339  1
  N  N5  1  0.641684  0.358316  0.534849  1
  N  N6  1  0.072502  0.241002  0.121661  1
  N  N7  1  0.758998  0.927498  0.121661  1
  N  N8  1  0.358316  0.641684  0.465151  1
  N  N9  1  0.241002  0.072502  0.878339  1
