# generated using pymatgen
data_NbN
_symmetry_space_group_name_H-M   'P 1'
_cell_length_a   3.20057721
_cell_length_b   3.20057721
_cell_length_c   6.06570416
_cell_angle_alpha   90.00000000
_cell_angle_beta   90.00000000
_cell_angle_gamma   120.00000000
_symmetry_Int_Tables_number   1
_chemical_formula_structural   NbN
_chemical_formula_sum   'Nb2 N2'
_cell_volume   53.81067918
_cell_formula_units_Z   2
loop_
 _symmetry_equiv_pos_site_id
 _symmetry_equiv_pos_as_xyz
  1  'x, y, z'
loop_
 _atom_site_type_symbol
 _atom_site_label
 _atom_site_symmetry_multiplicity
 _atom_site_fract_x
 _atom_site_fract_y
 _atom_site_fract_z
 _atom_site_occupancy
  Nb  Nb0  1  0.333333  0.666667  0.486399  1
  Nb  Nb1  1  0.666667  0.333333  0.986399  1
  N  N2  1  0.333333  0.666667  0.157601  1
  N  N3  1  0.666667  0.333333  0.657601  1
