# generated using pymatgen
data_Ce2USe5
_symmetry_space_group_name_H-M   'P 1'
_cell_length_a   7.84256762
_cell_length_b   8.46952252
_cell_length_c   12.43320710
_cell_angle_alpha   90.00000000
_cell_angle_beta   90.00000000
_cell_angle_gamma   90.00000000
_symmetry_Int_Tables_number   1
_chemical_formula_structural   Ce2USe5
_chemical_formula_sum   'Ce8 U4 Se20'
_cell_volume   825.84846676
_cell_formula_units_Z   4
loop_
 _symmetry_equiv_pos_site_id
 _symmetry_equiv_pos_as_xyz
  1  'x, y, z'
loop_
 _atom_site_type_symbol
 _atom_site_label
 _atom_site_symmetry_multiplicity
 _atom_site_fract_x
 _atom_site_fract_y
 _atom_site_fract_z
 _atom_site_occupancy
  Ce  Ce0  1  0.528637  0.999824  0.321856  1
  Ce  Ce1  1  0.028637  0.000176  0.178144  1
  Ce  Ce2  1  0.971363  0.500176  0.821856  1
  Ce  Ce3  1  0.471363  0.499824  0.678144  1
  Ce  Ce4  1  0.471363  0.000176  0.678144  1
  Ce  Ce5  1  0.971363  0.999824  0.821856  1
  Ce  Ce6  1  0.028637  0.499824  0.178144  1
  Ce  Ce7  1  0.528637  0.500176  0.321856  1
  U  U8  1  0.071818  0.750000  0.492454  1
  U  U9  1  0.571818  0.250000  0.007546  1
  U  U10  1  0.428182  0.750000  0.992454  1
  U  U11  1  0.928182  0.250000  0.507546  1
  Se  Se12  1  0.192567  0.750000  0.715982  1
  Se  Se13  1  0.692567  0.250000  0.784018  1
  Se  Se14  1  0.307433  0.750000  0.215982  1
  Se  Se15  1  0.807433  0.250000  0.284018  1
  Se  Se16  1  0.456596  0.750000  0.499133  1
  Se  Se17  1  0.956596  0.250000  0.000867  1
  Se  Se18  1  0.043404  0.750000  0.999133  1
  Se  Se19  1  0.543404  0.250000  0.500867  1
  Se  Se20  1  0.833029  0.750000  0.312464  1
  Se  Se21  1  0.333029  0.250000  0.187536  1
  Se  Se22  1  0.666971  0.750000  0.812464  1
  Se  Se23  1  0.166971  0.250000  0.687536  1
  Se  Se24  1  0.831170  0.543358  0.594623  1
  Se  Se25  1  0.331170  0.456642  0.905377  1
  Se  Se26  1  0.668830  0.956642  0.094623  1
  Se  Se27  1  0.168830  0.043358  0.405377  1
  Se  Se28  1  0.168830  0.456642  0.405377  1
  Se  Se29  1  0.668830  0.543358  0.094623  1
  Se  Se30  1  0.331170  0.043358  0.905377  1
  Se  Se31  1  0.831170  0.956642  0.594623  1
