# generated using pymatgen
data_Li2CN2
_symmetry_space_group_name_H-M   'P 1'
_cell_length_a   5.10545314
_cell_length_b   5.10545314
_cell_length_c   5.10545314
_cell_angle_alpha   137.28417919
_cell_angle_beta   137.28417919
_cell_angle_gamma   62.00109942
_symmetry_Int_Tables_number   1
_chemical_formula_structural   Li2CN2
_chemical_formula_sum   'Li2 C1 N2'
_cell_volume   60.51854975
_cell_formula_units_Z   1
loop_
 _symmetry_equiv_pos_site_id
 _symmetry_equiv_pos_as_xyz
  1  'x, y, z'
loop_
 _atom_site_type_symbol
 _atom_site_label
 _atom_site_symmetry_multiplicity
 _atom_site_fract_x
 _atom_site_fract_y
 _atom_site_fract_z
 _atom_site_occupancy
  Li  Li0  1  0.250000  0.750000  0.500000  1
  Li  Li1  1  0.750000  0.250000  0.500000  1
  C  C2  1  0.000000  0.000000  0.000000  1
  N  N3  1  0.141405  0.141405  0.000000  1
  N  N4  1  0.858595  0.858595  0.000000  1
