# generated using pymatgen
data_Tm(Mg4Al3)4
_symmetry_space_group_name_H-M   'P 1'
_cell_length_a   9.11846467
_cell_length_b   9.11846467
_cell_length_c   9.11846467
_cell_angle_alpha   109.47122063
_cell_angle_beta   109.47122063
_cell_angle_gamma   109.47122063
_symmetry_Int_Tables_number   1
_chemical_formula_structural   Tm(Mg4Al3)4
_chemical_formula_sum   'Tm1 Mg16 Al12'
_cell_volume   583.63760844
_cell_formula_units_Z   1
loop_
 _symmetry_equiv_pos_site_id
 _symmetry_equiv_pos_as_xyz
  1  'x, y, z'
loop_
 _atom_site_type_symbol
 _atom_site_label
 _atom_site_symmetry_multiplicity
 _atom_site_fract_x
 _atom_site_fract_y
 _atom_site_fract_z
 _atom_site_occupancy
  Tm  Tm0  1  0.000000  0.000000  0.000000  1
  Mg  Mg1  1  0.603151  0.319014  0.000000  1
  Mg  Mg2  1  0.319014  0.603151  0.000000  1
  Mg  Mg3  1  1.000000  0.356054  1.000000  1
  Mg  Mg4  1  0.356054  0.000000  0.000000  1
  Mg  Mg5  1  0.680986  0.680986  0.284138  1
  Mg  Mg6  1  0.000000  0.603151  0.319014  1
  Mg  Mg7  1  0.603151  0.000000  0.319014  1
  Mg  Mg8  1  0.000000  0.000000  0.356054  1
  Mg  Mg9  1  0.396849  0.715862  0.396849  1
  Mg  Mg10  1  0.715862  0.396849  0.396849  1
  Mg  Mg11  1  1.000000  0.319014  0.603151  1
  Mg  Mg12  1  0.319014  1.000000  0.603151  1
  Mg  Mg13  1  0.643946  0.643946  0.643946  1
  Mg  Mg14  1  0.680986  0.284138  0.680986  1
  Mg  Mg15  1  0.284138  0.680986  0.680986  1
  Mg  Mg16  1  0.396849  0.396849  0.715862  1
  Al  Al17  1  0.632899  0.813779  0.000000  1
  Al  Al18  1  0.813779  0.632899  0.000000  1
  Al  Al19  1  0.367101  0.367101  0.180880  1
  Al  Al20  1  0.186221  0.819120  0.186221  1
  Al  Al21  1  0.819120  0.186221  0.186221  1
  Al  Al22  1  0.180880  0.367101  0.367101  1
  Al  Al23  1  0.367101  0.180880  0.367101  1
  Al  Al24  1  1.000000  0.813779  0.632899  1
  Al  Al25  1  0.813779  0.000000  0.632899  1
  Al  Al26  1  0.632899  1.000000  0.813779  1
  Al  Al27  1  1.000000  0.632899  0.813779  1
  Al  Al28  1  0.186221  0.186221  0.819120  1
