# generated using pymatgen
data_TaAgO3
_symmetry_space_group_name_H-M   'P 1'
_cell_length_a   5.65097536
_cell_length_b   5.65097536
_cell_length_c   5.65097536
_cell_angle_alpha   59.12014223
_cell_angle_beta   59.12014223
_cell_angle_gamma   59.12014223
_symmetry_Int_Tables_number   1
_chemical_formula_structural   TaAgO3
_chemical_formula_sum   'Ta2 Ag2 O6'
_cell_volume   125.04219133
_cell_formula_units_Z   2
loop_
 _symmetry_equiv_pos_site_id
 _symmetry_equiv_pos_as_xyz
  1  'x, y, z'
loop_
 _atom_site_type_symbol
 _atom_site_label
 _atom_site_symmetry_multiplicity
 _atom_site_fract_x
 _atom_site_fract_y
 _atom_site_fract_z
 _atom_site_occupancy
  Ta  Ta0  1  1.000000  0.000000  0.000000  1
  Ta  Ta1  1  0.500000  0.500000  0.500000  1
  Ag  Ag2  1  0.750000  0.750000  0.750000  1
  Ag  Ag3  1  0.250000  0.250000  0.250000  1
  O  O4  1  0.250000  0.806526  0.693474  1
  O  O5  1  0.806526  0.693474  0.250000  1
  O  O6  1  0.693474  0.250000  0.806526  1
  O  O7  1  0.750000  0.193474  0.306526  1
  O  O8  1  0.306526  0.750000  0.193474  1
  O  O9  1  0.193474  0.306526  0.750000  1
