# generated using pymatgen
data_Ho3ReB7
_symmetry_space_group_name_H-M   'P 1'
_cell_length_a   8.05172963
_cell_length_b   8.05172963
_cell_length_c   9.32976877
_cell_angle_alpha   90.00000000
_cell_angle_beta   90.00000000
_cell_angle_gamma   154.72688636
_symmetry_Int_Tables_number   1
_chemical_formula_structural   Ho3ReB7
_chemical_formula_sum   'Ho6 Re2 B14'
_cell_volume   258.23169876
_cell_formula_units_Z   2
loop_
 _symmetry_equiv_pos_site_id
 _symmetry_equiv_pos_as_xyz
  1  'x, y, z'
loop_
 _atom_site_type_symbol
 _atom_site_label
 _atom_site_symmetry_multiplicity
 _atom_site_fract_x
 _atom_site_fract_y
 _atom_site_fract_z
 _atom_site_occupancy
  Ho  Ho0  1  0.105498  0.894502  0.939981  1
  Ho  Ho1  1  0.894502  0.105498  0.439981  1
  Ho  Ho2  1  0.894502  0.105498  0.060019  1
  Ho  Ho3  1  0.105498  0.894502  0.560019  1
  Ho  Ho4  1  0.757265  0.242735  0.750000  1
  Ho  Ho5  1  0.242735  0.757265  0.250000  1
  Re  Re6  1  0.947437  0.052563  0.750000  1
  Re  Re7  1  0.052564  0.947437  0.250000  1
  B  B8  1  0.543515  0.456485  0.750000  1
  B  B9  1  0.456485  0.543515  0.250000  1
  B  B10  1  0.272795  0.727205  0.966537  1
  B  B11  1  0.727205  0.272795  0.466537  1
  B  B12  1  0.727205  0.272795  0.033463  1
  B  B13  1  0.272795  0.727205  0.533463  1
  B  B14  1  0.367806  0.632194  0.650468  1
  B  B15  1  0.632194  0.367806  0.150468  1
  B  B16  1  0.632194  0.367806  0.349532  1
  B  B17  1  0.367806  0.632194  0.849532  1
  B  B18  1  0.479454  0.520546  0.595106  1
  B  B19  1  0.520546  0.479454  0.095106  1
  B  B20  1  0.520546  0.479454  0.404894  1
  B  B21  1  0.479454  0.520546  0.904894  1
