# generated using pymatgen
data_Li2CoPHO5
_symmetry_space_group_name_H-M   'P 1'
_cell_length_a   5.36876985
_cell_length_b   5.53431221
_cell_length_c   7.47750863
_cell_angle_alpha   108.05272845
_cell_angle_beta   109.33294610
_cell_angle_gamma   92.79469404
_symmetry_Int_Tables_number   1
_chemical_formula_structural   Li2CoPHO5
_chemical_formula_sum   'Li4 Co2 P2 H2 O10'
_cell_volume   196.46945072
_cell_formula_units_Z   2
loop_
 _symmetry_equiv_pos_site_id
 _symmetry_equiv_pos_as_xyz
  1  'x, y, z'
loop_
 _atom_site_type_symbol
 _atom_site_label
 _atom_site_symmetry_multiplicity
 _atom_site_fract_x
 _atom_site_fract_y
 _atom_site_fract_z
 _atom_site_occupancy
  Li  Li0  1  0.530308  0.874364  0.168374  1
  Li  Li1  1  0.203993  0.572736  0.201552  1
  Li  Li2  1  0.796007  0.427264  0.798448  1
  Li  Li3  1  0.469692  0.125636  0.831626  1
  Co  Co4  1  0.000000  0.000000  0.500000  1
  Co  Co5  1  0.000000  0.000000  0.000000  1
  P  P6  1  0.331741  0.626169  0.768629  1
  P  P7  1  0.668259  0.373831  0.231371  1
  H  H8  1  0.676215  0.916279  0.638739  1
  H  H9  1  0.323785  0.083721  0.361261  1
  O  O10  1  0.168814  0.947016  0.275598  1
  O  O11  1  0.266681  0.779960  0.621702  1
  O  O12  1  0.663522  0.662340  0.334091  1
  O  O13  1  0.621154  0.748125  0.926930  1
  O  O14  1  0.137803  0.655872  0.887386  1
  O  O15  1  0.862197  0.344128  0.112614  1
  O  O16  1  0.378846  0.251875  0.073070  1
  O  O17  1  0.336478  0.337660  0.665909  1
  O  O18  1  0.733319  0.220040  0.378298  1
  O  O19  1  0.831186  0.052984  0.724402  1
