# generated using pymatgen
data_Rb2Al2Si3O10
_symmetry_space_group_name_H-M   'P 1'
_cell_length_a   12.90392990
_cell_length_b   9.99619321
_cell_length_c   9.40258980
_cell_angle_alpha   83.33394818
_cell_angle_beta   50.30234295
_cell_angle_gamma   46.36370887
_symmetry_Int_Tables_number   1
_chemical_formula_structural   Rb2Al2Si3O10
_chemical_formula_sum   'Rb4 Al4 Si6 O20'
_cell_volume   548.68991804
_cell_formula_units_Z   2
loop_
 _symmetry_equiv_pos_site_id
 _symmetry_equiv_pos_as_xyz
  1  'x, y, z'
loop_
 _atom_site_type_symbol
 _atom_site_label
 _atom_site_symmetry_multiplicity
 _atom_site_fract_x
 _atom_site_fract_y
 _atom_site_fract_z
 _atom_site_occupancy
  Rb  Rb0  1  0.107819  0.269199  0.984064  1
  Rb  Rb1  1  0.638919  0.984064  0.269199  1
  Rb  Rb2  1  0.265936  0.611081  0.142181  1
  Rb  Rb3  1  0.980801  0.142181  0.611081  1
  Al  Al4  1  0.516317  0.668638  0.565248  1
  Al  Al5  1  0.249797  0.565248  0.668638  1
  Al  Al6  1  0.684752  0.000203  0.733683  1
  Al  Al7  1  0.581362  0.733683  0.000203  1
  Si  Si8  1  0.739262  0.691682  0.558914  1
  Si  Si9  1  0.010143  0.558914  0.691682  1
  Si  Si10  1  0.691086  0.239857  0.510738  1
  Si  Si11  1  0.558318  0.510738  0.239857  1
  Si  Si12  1  0.000197  0.999803  0.999803  1
  Si  Si13  1  0.250197  0.249803  0.249803  1
  O  O14  1  0.002531  0.417582  0.370249  1
  O  O15  1  0.209638  0.370249  0.417582  1
  O  O16  1  0.879751  0.040362  0.247469  1
  O  O17  1  0.832418  0.247469  0.040362  1
  O  O18  1  0.584746  0.746786  0.810138  1
  O  O19  1  0.858330  0.810138  0.746786  1
  O  O20  1  0.439862  0.391670  0.665254  1
  O  O21  1  0.503214  0.665254  0.391670  1
  O  O22  1  0.700723  0.394742  0.506748  1
  O  O23  1  0.397786  0.506748  0.394742  1
  O  O24  1  0.743252  0.852214  0.549277  1
  O  O25  1  0.855258  0.549277  0.852214  1
  O  O26  1  0.637310  0.731646  0.487165  1
  O  O27  1  0.143879  0.487165  0.731646  1
  O  O28  1  0.762835  0.106121  0.612690  1
  O  O29  1  0.518354  0.612690  0.106121  1
  O  O30  1  0.236023  0.884345  0.850659  1
  O  O31  1  0.028974  0.850659  0.884345  1
  O  O32  1  0.399341  0.221026  0.013977  1
  O  O33  1  0.365655  0.013977  0.221026  1
