# generated using pymatgen
data_CaCr2O4
_symmetry_space_group_name_H-M   'P 1'
_cell_length_a   7.64651276
_cell_length_b   9.13892930
_cell_length_c   10.68729281
_cell_angle_alpha   90.00000000
_cell_angle_beta   90.00000000
_cell_angle_gamma   90.00000000
_symmetry_Int_Tables_number   1
_chemical_formula_structural   CaCr2O4
_chemical_formula_sum   'Ca8 Cr16 O32'
_cell_volume   746.83806233
_cell_formula_units_Z   8
loop_
 _symmetry_equiv_pos_site_id
 _symmetry_equiv_pos_as_xyz
  1  'x, y, z'
loop_
 _atom_site_type_symbol
 _atom_site_label
 _atom_site_symmetry_multiplicity
 _atom_site_fract_x
 _atom_site_fract_y
 _atom_site_fract_z
 _atom_site_occupancy
  Ca  Ca0  1  0.501714  0.081408  0.889360  1
  Ca  Ca1  1  0.466937  0.612215  0.682254  1
  Ca  Ca2  1  0.966937  0.112215  0.817746  1
  Ca  Ca3  1  0.001714  0.581408  0.610640  1
  Ca  Ca4  1  0.533063  0.112215  0.317746  1
  Ca  Ca5  1  0.498286  0.581408  0.110640  1
  Ca  Ca6  1  0.998286  0.081408  0.389360  1
  Ca  Ca7  1  0.033063  0.612215  0.182254  1
  Cr  Cr8  1  0.750089  0.771825  0.880345  1
  Cr  Cr9  1  0.751855  0.432640  0.832777  1
  Cr  Cr10  1  0.666376  0.899892  0.622734  1
  Cr  Cr11  1  0.248145  0.932640  0.167223  1
  Cr  Cr12  1  0.250089  0.271825  0.619655  1
  Cr  Cr13  1  0.833624  0.899892  0.122734  1
  Cr  Cr14  1  0.749911  0.771825  0.380345  1
  Cr  Cr15  1  0.333624  0.399892  0.377266  1
  Cr  Cr16  1  0.319802  0.740147  0.414833  1
  Cr  Cr17  1  0.819802  0.240147  0.085167  1
  Cr  Cr18  1  0.680198  0.240147  0.585167  1
  Cr  Cr19  1  0.748145  0.432640  0.332777  1
  Cr  Cr20  1  0.251855  0.932640  0.667223  1
  Cr  Cr21  1  0.166376  0.399892  0.877266  1
  Cr  Cr22  1  0.249911  0.271825  0.119655  1
  Cr  Cr23  1  0.180198  0.740147  0.914833  1
  O  O24  1  0.347968  0.918778  0.327671  1
  O  O25  1  0.684392  0.284529  0.942803  1
  O  O26  1  0.949318  0.723367  0.988389  1
  O  O27  1  0.209626  0.587780  0.791515  1
  O  O28  1  0.247313  0.463923  0.039449  1
  O  O29  1  0.978032  0.366141  0.755933  1
  O  O30  1  0.747313  0.963923  0.460551  1
  O  O31  1  0.815608  0.284529  0.442803  1
  O  O32  1  0.790374  0.087780  0.208485  1
  O  O33  1  0.184392  0.784529  0.557197  1
  O  O34  1  0.550682  0.723367  0.488389  1
  O  O35  1  0.152032  0.918778  0.827671  1
  O  O36  1  0.478032  0.866141  0.744067  1
  O  O37  1  0.252687  0.463923  0.539449  1
  O  O38  1  0.115018  0.094239  0.601120  1
  O  O39  1  0.704072  0.743315  0.205058  1
  O  O40  1  0.050682  0.223367  0.011611  1
  O  O41  1  0.709626  0.087780  0.708485  1
  O  O42  1  0.315608  0.784529  0.057197  1
  O  O43  1  0.290374  0.587780  0.291515  1
  O  O44  1  0.204072  0.243315  0.294942  1
  O  O45  1  0.752687  0.963923  0.960551  1
  O  O46  1  0.521968  0.366141  0.255933  1
  O  O47  1  0.884982  0.594239  0.398880  1
  O  O48  1  0.795928  0.743315  0.705058  1
  O  O49  1  0.295928  0.243315  0.794942  1
  O  O50  1  0.449318  0.223367  0.511611  1
  O  O51  1  0.384982  0.094239  0.101120  1
  O  O52  1  0.847968  0.418778  0.172329  1
  O  O53  1  0.021968  0.866141  0.244067  1
  O  O54  1  0.615018  0.594239  0.898880  1
  O  O55  1  0.652032  0.418778  0.672329  1
