# generated using pymatgen
data_YP5
_symmetry_space_group_name_H-M   'P 1'
_cell_length_a   4.95878770
_cell_length_b   9.43815384
_cell_length_c   5.36516974
_cell_angle_alpha   90.00000000
_cell_angle_beta   102.12277300
_cell_angle_gamma   90.00000000
_symmetry_Int_Tables_number   1
_chemical_formula_structural   YP5
_chemical_formula_sum   'Y2 P10'
_cell_volume   245.50004700
_cell_formula_units_Z   2
loop_
 _symmetry_equiv_pos_site_id
 _symmetry_equiv_pos_as_xyz
  1  'x, y, z'
loop_
 _atom_site_type_symbol
 _atom_site_label
 _atom_site_symmetry_multiplicity
 _atom_site_fract_x
 _atom_site_fract_y
 _atom_site_fract_z
 _atom_site_occupancy
  Y  Y0  1  0.996525  0.250000  0.653628  1
  Y  Y1  1  0.003475  0.750000  0.346372  1
  P  P2  1  0.723315  0.250000  0.107773  1
  P  P3  1  0.276685  0.750000  0.892227  1
  P  P4  1  0.384059  0.407483  0.045179  1
  P  P5  1  0.615941  0.907483  0.954821  1
  P  P6  1  0.615941  0.592517  0.954821  1
  P  P7  1  0.384059  0.092517  0.045179  1
  P  P8  1  0.286070  0.471628  0.405057  1
  P  P9  1  0.713930  0.971628  0.594943  1
  P  P10  1  0.713930  0.528372  0.594943  1
  P  P11  1  0.286070  0.028372  0.405057  1
