# generated using pymatgen
data_Tm3Ga
_symmetry_space_group_name_H-M   'P 1'
_cell_length_a   6.67620936
_cell_length_b   6.67620936
_cell_length_c   5.22380576
_cell_angle_alpha   90.00000000
_cell_angle_beta   90.00000000
_cell_angle_gamma   120.00000000
_symmetry_Int_Tables_number   1
_chemical_formula_structural   Tm3Ga
_chemical_formula_sum   'Tm6 Ga2'
_cell_volume   201.64039823
_cell_formula_units_Z   2
loop_
 _symmetry_equiv_pos_site_id
 _symmetry_equiv_pos_as_xyz
  1  'x, y, z'
loop_
 _atom_site_type_symbol
 _atom_site_label
 _atom_site_symmetry_multiplicity
 _atom_site_fract_x
 _atom_site_fract_y
 _atom_site_fract_z
 _atom_site_occupancy
  Tm  Tm0  1  0.173522  0.347044  0.250000  1
  Tm  Tm1  1  0.652956  0.826478  0.250000  1
  Tm  Tm2  1  0.173522  0.826478  0.250000  1
  Tm  Tm3  1  0.826478  0.652956  0.750000  1
  Tm  Tm4  1  0.347044  0.173522  0.750000  1
  Tm  Tm5  1  0.826478  0.173522  0.750000  1
  Ga  Ga6  1  0.333333  0.666667  0.750000  1
  Ga  Ga7  1  0.666667  0.333333  0.250000  1
