# generated using pymatgen
data_Y(Mn2Fe)4
_symmetry_space_group_name_H-M   'P 1'
_cell_length_a   6.36568565
_cell_length_b   6.36568565
_cell_length_c   6.36568565
_cell_angle_alpha   97.86762583
_cell_angle_beta   97.86762583
_cell_angle_gamma   136.57129061
_symmetry_Int_Tables_number   1
_chemical_formula_structural   Y(Mn2Fe)4
_chemical_formula_sum   'Y1 Mn8 Fe4'
_cell_volume   164.74490592
_cell_formula_units_Z   1
loop_
 _symmetry_equiv_pos_site_id
 _symmetry_equiv_pos_as_xyz
  1  'x, y, z'
loop_
 _atom_site_type_symbol
 _atom_site_label
 _atom_site_symmetry_multiplicity
 _atom_site_fract_x
 _atom_site_fract_y
 _atom_site_fract_z
 _atom_site_occupancy
  Y  Y0  1  0.000000  0.000000  0.000000  1
  Mn  Mn1  1  0.358426  0.000000  0.358426  1
  Mn  Mn2  1  0.641574  0.000000  0.641574  1
  Mn  Mn3  1  1.000000  0.358426  0.358426  1
  Mn  Mn4  1  1.000000  0.641574  0.641574  1
  Mn  Mn5  1  0.268303  0.500000  0.768303  1
  Mn  Mn6  1  0.731697  0.500000  0.231697  1
  Mn  Mn7  1  0.500000  0.268303  0.768303  1
  Mn  Mn8  1  0.500000  0.731697  0.231697  1
  Fe  Fe9  1  0.000000  0.500000  0.000000  1
  Fe  Fe10  1  0.500000  0.000000  0.000000  1
  Fe  Fe11  1  0.500000  0.500000  0.500000  1
  Fe  Fe12  1  0.000000  0.000000  0.500000  1
