# generated using pymatgen
data_UCd(PbO3)2
_symmetry_space_group_name_H-M   'P 1'
_cell_length_a   5.96095879
_cell_length_b   6.14552228
_cell_length_c   10.40022238
_cell_angle_alpha   90.00000000
_cell_angle_beta   124.37101263
_cell_angle_gamma   90.00000000
_symmetry_Int_Tables_number   1
_chemical_formula_structural   UCd(PbO3)2
_chemical_formula_sum   'U2 Cd2 Pb4 O12'
_cell_volume   314.47172208
_cell_formula_units_Z   2
loop_
 _symmetry_equiv_pos_site_id
 _symmetry_equiv_pos_as_xyz
  1  'x, y, z'
loop_
 _atom_site_type_symbol
 _atom_site_label
 _atom_site_symmetry_multiplicity
 _atom_site_fract_x
 _atom_site_fract_y
 _atom_site_fract_z
 _atom_site_occupancy
  U  U0  1  0.500000  0.000000  0.000000  1
  U  U1  1  0.500000  0.500000  0.500000  1
  Cd  Cd2  1  0.000000  0.000000  0.500000  1
  Cd  Cd3  1  0.000000  0.500000  0.000000  1
  Pb  Pb4  1  0.757301  0.041341  0.753097  1
  Pb  Pb5  1  0.242699  0.541341  0.746903  1
  Pb  Pb6  1  0.242699  0.958659  0.246903  1
  Pb  Pb7  1  0.757301  0.458659  0.253097  1
  O  O8  1  0.275997  0.214647  0.448729  1
  O  O9  1  0.724003  0.714647  0.051271  1
  O  O10  1  0.724003  0.785353  0.551271  1
  O  O11  1  0.275997  0.285353  0.948729  1
  O  O12  1  0.836273  0.322207  0.543338  1
  O  O13  1  0.163727  0.822207  0.956662  1
  O  O14  1  0.163727  0.677793  0.456662  1
  O  O15  1  0.836273  0.177793  0.043338  1
  O  O16  1  0.636048  0.469957  0.737425  1
  O  O17  1  0.363952  0.969957  0.762575  1
  O  O18  1  0.363952  0.530043  0.262575  1
  O  O19  1  0.636048  0.030043  0.237425  1
