# generated using pymatgen
data_Hg2H6CN3Cl5
_symmetry_space_group_name_H-M   'P 1'
_cell_length_a   8.07762445
_cell_length_b   8.07762445
_cell_length_c   18.54015069
_cell_angle_alpha   90.00000000
_cell_angle_beta   90.00000000
_cell_angle_gamma   150.74101245
_symmetry_Int_Tables_number   1
_chemical_formula_structural   Hg2H6CN3Cl5
_chemical_formula_sum   'Hg4 H12 C2 N6 Cl10'
_cell_volume   591.25461109
_cell_formula_units_Z   2
loop_
 _symmetry_equiv_pos_site_id
 _symmetry_equiv_pos_as_xyz
  1  'x, y, z'
loop_
 _atom_site_type_symbol
 _atom_site_label
 _atom_site_symmetry_multiplicity
 _atom_site_fract_x
 _atom_site_fract_y
 _atom_site_fract_z
 _atom_site_occupancy
  Hg  Hg0  1  0.719471  0.987120  0.037660  1
  Hg  Hg1  1  0.280529  0.012880  0.537660  1
  Hg  Hg2  1  0.987120  0.719471  0.962340  1
  Hg  Hg3  1  0.012880  0.280529  0.462340  1
  H  H4  1  0.413601  0.428778  0.813179  1
  H  H5  1  0.586399  0.571222  0.313179  1
  H  H6  1  0.428778  0.413601  0.186821  1
  H  H7  1  0.571222  0.586399  0.686821  1
  H  H8  1  0.197509  0.665375  0.793844  1
  H  H9  1  0.802491  0.334625  0.293844  1
  H  H10  1  0.665375  0.197509  0.206156  1
  H  H11  1  0.334625  0.802491  0.706156  1
  H  H12  1  0.160998  0.365045  0.847410  1
  H  H13  1  0.839002  0.634955  0.347410  1
  H  H14  1  0.365045  0.160998  0.152590  1
  H  H15  1  0.634955  0.839002  0.652590  1
  C  C16  1  0.386480  0.613520  0.750000  1
  C  C17  1  0.613520  0.386480  0.250000  1
  N  N18  1  0.300706  0.699294  0.750000  1
  N  N19  1  0.699294  0.300706  0.250000  1
  N  N20  1  0.299080  0.440442  0.805602  1
  N  N21  1  0.700920  0.559558  0.305602  1
  N  N22  1  0.440442  0.299080  0.194398  1
  N  N23  1  0.559558  0.700920  0.694398  1
  Cl  Cl24  1  0.355712  0.355712  1.000000  1
  Cl  Cl25  1  0.644288  0.644288  0.500000  1
  Cl  Cl26  1  0.683246  0.081698  0.921963  1
  Cl  Cl27  1  0.316754  0.918302  0.421963  1
  Cl  Cl28  1  0.081698  0.683246  0.078037  1
  Cl  Cl29  1  0.918302  0.316754  0.578037  1
  Cl  Cl30  1  0.721873  0.945338  0.163496  1
  Cl  Cl31  1  0.278127  0.054662  0.663496  1
  Cl  Cl32  1  0.945338  0.721873  0.836504  1
  Cl  Cl33  1  0.054662  0.278127  0.336504  1
