# generated using pymatgen
data_C
_symmetry_space_group_name_H-M   'P 1'
_cell_length_a   4.52647536
_cell_length_b   4.17648850
_cell_length_c   2.46811849
_cell_angle_alpha   81.50442071
_cell_angle_beta   65.86095785
_cell_angle_gamma   32.63462144
_symmetry_Int_Tables_number   1
_chemical_formula_structural   C
_chemical_formula_sum   C2
_cell_volume   21.04899902
_cell_formula_units_Z   2
loop_
 _symmetry_equiv_pos_site_id
 _symmetry_equiv_pos_as_xyz
  1  'x, y, z'
loop_
 _atom_site_type_symbol
 _atom_site_label
 _atom_site_symmetry_multiplicity
 _atom_site_fract_x
 _atom_site_fract_y
 _atom_site_fract_z
 _atom_site_occupancy
  C  C0  1  0.666666  0.333334  0.666666  1
  C  C1  1  0.333334  0.666666  0.333334  1
