# generated using pymatgen
data_SrReN3
_symmetry_space_group_name_H-M   'P 1'
_cell_length_a   7.65557096
_cell_length_b   7.65557096
_cell_length_c   6.28829727
_cell_angle_alpha   77.39251247
_cell_angle_beta   102.60748753
_cell_angle_gamma   93.09361878
_symmetry_Int_Tables_number   1
_chemical_formula_structural   SrReN3
_chemical_formula_sum   'Sr4 Re4 N12'
_cell_volume   350.97714050
_cell_formula_units_Z   4
loop_
 _symmetry_equiv_pos_site_id
 _symmetry_equiv_pos_as_xyz
  1  'x, y, z'
loop_
 _atom_site_type_symbol
 _atom_site_label
 _atom_site_symmetry_multiplicity
 _atom_site_fract_x
 _atom_site_fract_y
 _atom_site_fract_z
 _atom_site_occupancy
  Sr  Sr0  1  0.313564  0.313564  0.750000  1
  Sr  Sr1  1  0.907988  0.907988  0.750000  1
  Sr  Sr2  1  0.092012  0.092012  0.250000  1
  Sr  Sr3  1  0.686436  0.686436  0.250000  1
  Re  Re4  1  0.795876  0.375169  0.746503  1
  Re  Re5  1  0.375169  0.795876  0.753497  1
  Re  Re6  1  0.624831  0.204124  0.246503  1
  Re  Re7  1  0.204124  0.624831  0.253497  1
  N  N8  1  0.767880  0.014282  0.333779  1
  N  N9  1  0.132462  0.403204  0.332141  1
  N  N10  1  0.330301  0.642000  0.016935  1
  N  N11  1  0.596796  0.867538  0.832141  1
  N  N12  1  0.867538  0.596796  0.667859  1
  N  N13  1  0.232120  0.985718  0.666221  1
  N  N14  1  0.985718  0.232120  0.833779  1
  N  N15  1  0.358000  0.669699  0.516935  1
  N  N16  1  0.642000  0.330301  0.483065  1
  N  N17  1  0.014282  0.767880  0.166221  1
  N  N18  1  0.403204  0.132462  0.167859  1
  N  N19  1  0.669699  0.358000  0.983065  1
