# generated using pymatgen
data_Sm2(ReB2)3
_symmetry_space_group_name_H-M   'P 1'
_cell_length_a   6.28553698
_cell_length_b   6.28553698
_cell_length_c   7.56871496
_cell_angle_alpha   89.46658684
_cell_angle_beta   90.53341316
_cell_angle_gamma   65.55917586
_symmetry_Int_Tables_number   1
_chemical_formula_structural   Sm2(ReB2)3
_chemical_formula_sum   'Sm4 Re6 B12'
_cell_volume   272.18848579
_cell_formula_units_Z   2
loop_
 _symmetry_equiv_pos_site_id
 _symmetry_equiv_pos_as_xyz
  1  'x, y, z'
loop_
 _atom_site_type_symbol
 _atom_site_label
 _atom_site_symmetry_multiplicity
 _atom_site_fract_x
 _atom_site_fract_y
 _atom_site_fract_z
 _atom_site_occupancy
  Sm  Sm0  1  0.441724  0.904806  0.824507  1
  Sm  Sm1  1  0.904806  0.441724  0.675493  1
  Sm  Sm2  1  0.558276  0.095194  0.175493  1
  Sm  Sm3  1  0.095194  0.558276  0.324507  1
  Re  Re4  1  0.805481  0.010146  0.587675  1
  Re  Re5  1  0.010146  0.805481  0.912325  1
  Re  Re6  1  0.194519  0.989854  0.412325  1
  Re  Re7  1  0.989854  0.194519  0.087675  1
  Re  Re8  1  0.414421  0.414421  0.750000  1
  Re  Re9  1  0.585579  0.585579  0.250000  1
  B  B10  1  0.153182  0.754830  0.631526  1
  B  B11  1  0.754830  0.153182  0.868474  1
  B  B12  1  0.846818  0.245170  0.368474  1
  B  B13  1  0.245170  0.846818  0.131526  1
  B  B14  1  0.160051  0.412426  0.979954  1
  B  B15  1  0.412426  0.160051  0.520046  1
  B  B16  1  0.839949  0.587574  0.020046  1
  B  B17  1  0.587574  0.839949  0.479954  1
  B  B18  1  0.349839  0.557343  0.034660  1
  B  B19  1  0.557343  0.349839  0.465340  1
  B  B20  1  0.650161  0.442657  0.965340  1
  B  B21  1  0.442657  0.650161  0.534660  1
