# generated using pymatgen
data_TaGeRh
_symmetry_space_group_name_H-M   'P 1'
_cell_length_a   3.87219696
_cell_length_b   6.47274252
_cell_length_c   7.49737706
_cell_angle_alpha   90.00000000
_cell_angle_beta   90.00000000
_cell_angle_gamma   90.00000000
_symmetry_Int_Tables_number   1
_chemical_formula_structural   TaGeRh
_chemical_formula_sum   'Ta4 Ge4 Rh4'
_cell_volume   187.91226365
_cell_formula_units_Z   4
loop_
 _symmetry_equiv_pos_site_id
 _symmetry_equiv_pos_as_xyz
  1  'x, y, z'
loop_
 _atom_site_type_symbol
 _atom_site_label
 _atom_site_symmetry_multiplicity
 _atom_site_fract_x
 _atom_site_fract_y
 _atom_site_fract_z
 _atom_site_occupancy
  Ta  Ta0  1  0.250000  0.972202  0.178545  1
  Ta  Ta1  1  0.250000  0.472202  0.321455  1
  Ta  Ta2  1  0.750000  0.527798  0.678545  1
  Ta  Ta3  1  0.750000  0.027798  0.821455  1
  Ge  Ge4  1  0.750000  0.259360  0.123832  1
  Ge  Ge5  1  0.750000  0.759360  0.376168  1
  Ge  Ge6  1  0.250000  0.240640  0.623832  1
  Ge  Ge7  1  0.250000  0.740640  0.876168  1
  Rh  Rh8  1  0.750000  0.644622  0.062921  1
  Rh  Rh9  1  0.750000  0.144622  0.437079  1
  Rh  Rh10  1  0.250000  0.855378  0.562921  1
  Rh  Rh11  1  0.250000  0.355378  0.937079  1
