# generated using pymatgen
data_KSe
_symmetry_space_group_name_H-M   'P 1'
_cell_length_a   9.03495168
_cell_length_b   9.03495168
_cell_length_c   6.09835724
_cell_angle_alpha   90.00000000
_cell_angle_beta   90.00000000
_cell_angle_gamma   120.00000000
_symmetry_Int_Tables_number   1
_chemical_formula_structural   KSe
_chemical_formula_sum   'K6 Se6'
_cell_volume   431.11701335
_cell_formula_units_Z   6
loop_
 _symmetry_equiv_pos_site_id
 _symmetry_equiv_pos_as_xyz
  1  'x, y, z'
loop_
 _atom_site_type_symbol
 _atom_site_label
 _atom_site_symmetry_multiplicity
 _atom_site_fract_x
 _atom_site_fract_y
 _atom_site_fract_z
 _atom_site_occupancy
  K  K0  1  0.649940  0.000000  0.000000  1
  K  K1  1  0.350060  0.350060  0.000000  1
  K  K2  1  0.000000  0.649940  0.000000  1
  K  K3  1  0.316367  0.000000  0.500000  1
  K  K4  1  0.683633  0.683633  0.500000  1
  K  K5  1  0.000000  0.316367  0.500000  1
  Se  Se6  1  0.000000  0.000000  0.199713  1
  Se  Se7  1  0.000000  0.000000  0.800287  1
  Se  Se8  1  0.333333  0.666667  0.299240  1
  Se  Se9  1  0.333333  0.666667  0.700760  1
  Se  Se10  1  0.666667  0.333333  0.700760  1
  Se  Se11  1  0.666667  0.333333  0.299240  1
