# generated using pymatgen
data_ZnO
_symmetry_space_group_name_H-M   'P 1'
_cell_length_a   3.05547879
_cell_length_b   3.05547879
_cell_length_c   30.40991309
_cell_angle_alpha   90.00000000
_cell_angle_beta   90.00000000
_cell_angle_gamma   120.00000000
_symmetry_Int_Tables_number   1
_chemical_formula_structural   ZnO
_chemical_formula_sum   'Zn12 O12'
_cell_volume   245.86933036
_cell_formula_units_Z   12
loop_
 _symmetry_equiv_pos_site_id
 _symmetry_equiv_pos_as_xyz
  1  'x, y, z'
loop_
 _atom_site_type_symbol
 _atom_site_label
 _atom_site_symmetry_multiplicity
 _atom_site_fract_x
 _atom_site_fract_y
 _atom_site_fract_z
 _atom_site_occupancy
  Zn  Zn0  1  0.666667  0.333333  0.165062  1
  Zn  Zn1  1  0.333333  0.666667  0.834938  1
  Zn  Zn2  1  0.333333  0.666667  0.665062  1
  Zn  Zn3  1  0.666667  0.333333  0.334938  1
  Zn  Zn4  1  0.666667  0.333333  0.582528  1
  Zn  Zn5  1  0.333333  0.666667  0.417472  1
  Zn  Zn6  1  0.333333  0.666667  0.082528  1
  Zn  Zn7  1  0.666667  0.333333  0.917472  1
  Zn  Zn8  1  0.000000  0.000000  0.750000  1
  Zn  Zn9  1  0.000000  0.000000  0.250000  1
  Zn  Zn10  1  0.000000  0.000000  0.000000  1
  Zn  Zn11  1  0.000000  0.000000  0.500000  1
  O  O12  1  0.666667  0.333333  0.041269  1
  O  O13  1  0.333333  0.666667  0.958731  1
  O  O14  1  0.333333  0.666667  0.541269  1
  O  O15  1  0.666667  0.333333  0.458731  1
  O  O16  1  0.666667  0.333333  0.793842  1
  O  O17  1  0.333333  0.666667  0.206158  1
  O  O18  1  0.333333  0.666667  0.293842  1
  O  O19  1  0.666667  0.333333  0.706158  1
  O  O20  1  0.000000  0.000000  0.876241  1
  O  O21  1  0.000000  0.000000  0.123759  1
  O  O22  1  0.000000  0.000000  0.376241  1
  O  O23  1  0.000000  0.000000  0.623759  1
