# generated using pymatgen
data_Dy3Fe2Si3
_symmetry_space_group_name_H-M   'P 1'
_cell_length_a   5.65462143
_cell_length_b   5.65462143
_cell_length_c   13.59724938
_cell_angle_alpha   90.00000000
_cell_angle_beta   90.00000000
_cell_angle_gamma   137.72884317
_symmetry_Int_Tables_number   1
_chemical_formula_structural   Dy3Fe2Si3
_chemical_formula_sum   'Dy6 Fe4 Si6'
_cell_volume   292.44276522
_cell_formula_units_Z   2
loop_
 _symmetry_equiv_pos_site_id
 _symmetry_equiv_pos_as_xyz
  1  'x, y, z'
loop_
 _atom_site_type_symbol
 _atom_site_label
 _atom_site_symmetry_multiplicity
 _atom_site_fract_x
 _atom_site_fract_y
 _atom_site_fract_z
 _atom_site_occupancy
  Dy  Dy0  1  0.580309  0.419691  0.111982  1
  Dy  Dy1  1  0.419691  0.580309  0.888018  1
  Dy  Dy2  1  0.419691  0.580309  0.611982  1
  Dy  Dy3  1  0.580309  0.419691  0.388018  1
  Dy  Dy4  1  0.135413  0.864587  0.750000  1
  Dy  Dy5  1  0.864587  0.135413  0.250000  1
  Fe  Fe6  1  0.284521  0.715479  0.419563  1
  Fe  Fe7  1  0.715479  0.284521  0.580437  1
  Fe  Fe8  1  0.715479  0.284521  0.919563  1
  Fe  Fe9  1  0.284521  0.715479  0.080437  1
  Si  Si10  1  0.873845  0.126155  0.039774  1
  Si  Si11  1  0.126155  0.873845  0.960226  1
  Si  Si12  1  0.126155  0.873845  0.539774  1
  Si  Si13  1  0.873845  0.126155  0.460226  1
  Si  Si14  1  0.823814  0.176186  0.750000  1
  Si  Si15  1  0.176186  0.823814  0.250000  1
