# generated using pymatgen
data_SnGe
_symmetry_space_group_name_H-M   'P 1'
_cell_length_a   4.36362067
_cell_length_b   4.36362067
_cell_length_c   12.58619825
_cell_angle_alpha   90.00000000
_cell_angle_beta   90.00000000
_cell_angle_gamma   120.00000000
_symmetry_Int_Tables_number   1
_chemical_formula_structural   SnGe
_chemical_formula_sum   'Sn1 Ge1'
_cell_volume   207.54830012
_cell_formula_units_Z   1
loop_
 _symmetry_equiv_pos_site_id
 _symmetry_equiv_pos_as_xyz
  1  'x, y, z'
loop_
 _atom_site_type_symbol
 _atom_site_label
 _atom_site_symmetry_multiplicity
 _atom_site_fract_x
 _atom_site_fract_y
 _atom_site_fract_z
 _atom_site_occupancy
  Sn  Sn0  1  0.000000  0.000000  0.481921  1
  Ge  Ge1  1  0.333333  0.666667  0.543079  1
