# generated using pymatgen
data_HfGeO4
_symmetry_space_group_name_H-M   'P 1'
_cell_length_a   6.32611148
_cell_length_b   6.32611148
_cell_length_c   6.32611148
_cell_angle_alpha   134.54143301
_cell_angle_beta   134.54143301
_cell_angle_gamma   66.24355013
_symmetry_Int_Tables_number   1
_chemical_formula_structural   HfGeO4
_chemical_formula_sum   'Hf2 Ge2 O8'
_cell_volume   126.61487704
_cell_formula_units_Z   2
loop_
 _symmetry_equiv_pos_site_id
 _symmetry_equiv_pos_as_xyz
  1  'x, y, z'
loop_
 _atom_site_type_symbol
 _atom_site_label
 _atom_site_symmetry_multiplicity
 _atom_site_fract_x
 _atom_site_fract_y
 _atom_site_fract_z
 _atom_site_occupancy
  Hf  Hf0  1  0.000000  0.000000  0.000000  1
  Hf  Hf1  1  0.750000  0.250000  0.500000  1
  Ge  Ge2  1  0.500000  0.500000  0.000000  1
  Ge  Ge3  1  0.250000  0.750000  0.500000  1
  O  O4  1  0.342707  0.937491  0.944086  1
  O  O5  1  0.687491  0.243405  0.094784  1
  O  O6  1  0.148621  0.592707  0.905216  1
  O  O7  1  0.993405  0.398621  0.055914  1
  O  O8  1  0.756595  0.851379  0.444086  1
  O  O9  1  0.601379  0.657293  0.594784  1
  O  O10  1  0.062509  0.006595  0.405216  1
  O  O11  1  0.407293  0.312509  0.555914  1
