# generated using pymatgen
data_TbGa2Pd
_symmetry_space_group_name_H-M   'P 1'
_cell_length_a   5.55978906
_cell_length_b   5.55978906
_cell_length_c   6.61636618
_cell_angle_alpha   90.00000000
_cell_angle_beta   90.00000000
_cell_angle_gamma   132.68686728
_symmetry_Int_Tables_number   1
_chemical_formula_structural   TbGa2Pd
_chemical_formula_sum   'Tb2 Ga4 Pd2'
_cell_volume   150.33665085
_cell_formula_units_Z   2
loop_
 _symmetry_equiv_pos_site_id
 _symmetry_equiv_pos_as_xyz
  1  'x, y, z'
loop_
 _atom_site_type_symbol
 _atom_site_label
 _atom_site_symmetry_multiplicity
 _atom_site_fract_x
 _atom_site_fract_y
 _atom_site_fract_z
 _atom_site_occupancy
  Tb  Tb0  1  0.910306  0.089694  0.250000  1
  Tb  Tb1  1  0.089694  0.910306  0.750000  1
  Ga  Ga2  1  0.626647  0.373353  0.446740  1
  Ga  Ga3  1  0.373353  0.626647  0.946740  1
  Ga  Ga4  1  0.373353  0.626647  0.553260  1
  Ga  Ga5  1  0.626647  0.373353  0.053260  1
  Pd  Pd6  1  0.199573  0.800427  0.250000  1
  Pd  Pd7  1  0.800427  0.199573  0.750000  1
