# generated using pymatgen
data_BaAuO2
_symmetry_space_group_name_H-M   'P 1'
_cell_length_a   6.37250291
_cell_length_b   6.37250291
_cell_length_c   3.93256210
_cell_angle_alpha   89.84496898
_cell_angle_beta   90.15503102
_cell_angle_gamma   71.57477878
_symmetry_Int_Tables_number   1
_chemical_formula_structural   BaAuO2
_chemical_formula_sum   'Ba2 Au2 O4'
_cell_volume   151.50844850
_cell_formula_units_Z   2
loop_
 _symmetry_equiv_pos_site_id
 _symmetry_equiv_pos_as_xyz
  1  'x, y, z'
loop_
 _atom_site_type_symbol
 _atom_site_label
 _atom_site_symmetry_multiplicity
 _atom_site_fract_x
 _atom_site_fract_y
 _atom_site_fract_z
 _atom_site_occupancy
  Ba  Ba0  1  0.000000  0.500000  0.000000  1
  Ba  Ba1  1  0.500000  0.000000  0.000000  1
  Au  Au2  1  0.000000  1.000000  0.500000  1
  Au  Au3  1  0.500000  0.500000  0.500000  1
  O  O4  1  0.246828  0.753172  0.271770  1
  O  O5  1  0.301136  0.301136  0.500000  1
  O  O6  1  0.698864  0.698864  0.500000  1
  O  O7  1  0.753172  0.246828  0.728230  1
