# generated using pymatgen
data_LaOsN3
_symmetry_space_group_name_H-M   'P 1'
_cell_length_a   3.83698255
_cell_length_b   4.76671901
_cell_length_c   7.40852670
_cell_angle_alpha   90.00000000
_cell_angle_beta   97.11513813
_cell_angle_gamma   90.00000000
_symmetry_Int_Tables_number   1
_chemical_formula_structural   LaOsN3
_chemical_formula_sum   'La2 Os2 N6'
_cell_volume   134.45714596
_cell_formula_units_Z   2
loop_
 _symmetry_equiv_pos_site_id
 _symmetry_equiv_pos_as_xyz
  1  'x, y, z'
loop_
 _atom_site_type_symbol
 _atom_site_label
 _atom_site_symmetry_multiplicity
 _atom_site_fract_x
 _atom_site_fract_y
 _atom_site_fract_z
 _atom_site_occupancy
  La  La0  1  0.919474  0.250000  0.712793  1
  La  La1  1  0.080526  0.750000  0.287207  1
  Os  Os2  1  0.483679  0.750000  0.905971  1
  Os  Os3  1  0.516321  0.250000  0.094029  1
  N  N4  1  0.538625  0.250000  0.368395  1
  N  N5  1  0.461375  0.750000  0.631605  1
  N  N6  1  0.985431  0.750000  0.907215  1
  N  N7  1  0.297327  0.250000  0.465248  1
  N  N8  1  0.702673  0.750000  0.534752  1
  N  N9  1  0.014569  0.250000  0.092785  1
