# generated using pymatgen
data_LiFeSiO4
_symmetry_space_group_name_H-M   'P 1'
_cell_length_a   10.34728252
_cell_length_b   10.34728252
_cell_length_c   17.29286101
_cell_angle_alpha   69.98702750
_cell_angle_beta   110.01297250
_cell_angle_gamma   122.61566780
_symmetry_Int_Tables_number   1
_chemical_formula_structural   LiFeSiO4
_chemical_formula_sum   'Li16 Fe16 Si16 O64'
_cell_volume   1435.93169643
_cell_formula_units_Z   16
loop_
 _symmetry_equiv_pos_site_id
 _symmetry_equiv_pos_as_xyz
  1  'x, y, z'
loop_
 _atom_site_type_symbol
 _atom_site_label
 _atom_site_symmetry_multiplicity
 _atom_site_fract_x
 _atom_site_fract_y
 _atom_site_fract_z
 _atom_site_occupancy
  Li  Li0  1  0.575156  0.371775  0.184709  1
  Li  Li1  1  0.642459  0.922843  0.687990  1
  Li  Li2  1  0.721191  0.186669  0.433860  1
  Li  Li3  1  0.224085  0.610470  0.436885  1
  Li  Li4  1  0.312830  0.277750  0.934163  1
  Li  Li5  1  0.889457  0.776432  0.936891  1
  Li  Li6  1  0.502208  0.881608  0.186752  1
  Li  Li7  1  0.077157  0.357541  0.187990  1
  Li  Li8  1  0.129751  0.999646  0.688026  1
  Li  Li9  1  0.628225  0.424844  0.684709  1
  Li  Li10  1  0.722250  0.687170  0.434163  1
  Li  Li11  1  0.223568  0.110543  0.436891  1
  Li  Li12  1  0.813331  0.278809  0.933860  1
  Li  Li13  1  0.389530  0.775915  0.936885  1
  Li  Li14  1  0.000354  0.870249  0.188026  1
  Li  Li15  1  0.118392  0.497792  0.686752  1
  Fe  Fe16  1  0.302102  0.053261  0.121663  1
  Fe  Fe17  1  0.874877  0.550119  0.121303  1
  Fe  Fe18  1  0.953431  0.198607  0.618913  1
  Fe  Fe19  1  0.441003  0.623794  0.625844  1
  Fe  Fe20  1  0.558655  0.880239  0.376969  1
  Fe  Fe21  1  0.060468  0.311966  0.376429  1
  Fe  Fe22  1  0.621198  0.441254  0.875558  1
  Fe  Fe23  1  0.188682  0.941207  0.877879  1
  Fe  Fe24  1  0.801393  0.046569  0.118913  1
  Fe  Fe25  1  0.376206  0.558997  0.125844  1
  Fe  Fe26  1  0.946739  0.697898  0.621663  1
  Fe  Fe27  1  0.449881  0.125123  0.621303  1
  Fe  Fe28  1  0.558746  0.378802  0.375558  1
  Fe  Fe29  1  0.058793  0.811318  0.377879  1
  Fe  Fe30  1  0.119761  0.441345  0.876969  1
  Fe  Fe31  1  0.688034  0.939532  0.876429  1
  Si  Si32  1  0.873214  0.500740  0.313055  1
  Si  Si33  1  0.427439  0.626557  0.811082  1
  Si  Si34  1  0.999794  0.129342  0.812369  1
  Si  Si35  1  0.607782  0.228333  0.060384  1
  Si  Si36  1  0.188611  0.733274  0.063361  1
  Si  Si37  1  0.767466  0.889288  0.561667  1
  Si  Si38  1  0.270237  0.313632  0.562426  1
  Si  Si39  1  0.373443  0.572561  0.311082  1
  Si  Si40  1  0.870658  0.000206  0.312369  1
  Si  Si41  1  0.927411  0.632442  0.809822  1
  Si  Si42  1  0.499260  0.126786  0.813055  1
  Si  Si43  1  0.110712  0.232534  0.061667  1
  Si  Si44  1  0.686368  0.729763  0.062426  1
  Si  Si45  1  0.771667  0.392218  0.560384  1
  Si  Si46  1  0.266726  0.811389  0.563361  1
  Si  Si47  1  0.367558  0.072589  0.309822  1
  O  O48  1  0.998722  0.600858  0.387356  1
  O  O49  1  0.805591  0.692586  0.040884  1
  O  O50  1  0.421012  0.148121  0.217731  1
  O  O51  1  0.927608  0.612407  0.223343  1
  O  O52  1  0.422623  0.188134  0.036703  1
  O  O53  1  0.702983  0.346993  0.127956  1
  O  O54  1  0.501626  0.024862  0.377159  1
  O  O55  1  0.899141  0.001794  0.886304  1
  O  O56  1  0.301833  0.691465  0.540560  1
  O  O57  1  0.351694  0.574907  0.718548  1
  O  O58  1  0.891917  0.071245  0.722596  1
  O  O59  1  0.281323  0.856010  0.129011  1
  O  O60  1  0.805456  0.074020  0.537814  1
  O  O61  1  0.879028  0.334275  0.343040  1
  O  O62  1  0.647777  0.791263  0.629124  1
  O  O63  1  0.053801  0.563858  0.105485  1
  O  O64  1  0.473791  0.492196  0.878545  1
  O  O65  1  0.371466  0.698868  0.348027  1
  O  O66  1  0.149201  0.215689  0.628581  1
  O  O67  1  0.187764  0.392883  0.475124  1
  O  O68  1  0.166895  0.123894  0.843010  1
  O  O69  1  0.685616  0.955212  0.298036  1
  O  O70  1  0.194680  0.425250  0.297384  1
  O  O71  1  0.682053  0.817991  0.475599  1
  O  O72  1  0.621019  0.065547  0.102389  1
  O  O73  1  0.434464  0.451094  0.606272  1
  O  O74  1  0.801732  0.631334  0.849099  1
  O  O75  1  0.106611  0.812506  0.975654  1
  O  O76  1  0.998206  0.100859  0.386304  1
  O  O77  1  0.308535  0.698167  0.040560  1
  O  O78  1  0.425093  0.648306  0.218548  1
  O  O79  1  0.928755  0.108083  0.222596  1
  O  O80  1  0.072028  0.813768  0.795070  1
  O  O81  1  0.549645  0.313336  0.798001  1
  O  O82  1  0.933408  0.882005  0.602155  1
  O  O83  1  0.680917  0.316241  0.974753  1
  O  O84  1  0.925980  0.194544  0.037814  1
  O  O85  1  0.208737  0.352223  0.129124  1
  O  O86  1  0.399142  0.001278  0.887356  1
  O  O87  1  0.507804  0.526209  0.378545  1
  O  O88  1  0.307414  0.194409  0.540884  1
  O  O89  1  0.851879  0.578988  0.717731  1
  O  O90  1  0.387593  0.072392  0.723343  1
  O  O91  1  0.784311  0.850799  0.128581  1
  O  O92  1  0.876106  0.833105  0.343010  1
  O  O93  1  0.811866  0.577377  0.536703  1
  O  O94  1  0.548906  0.565536  0.106272  1
  O  O95  1  0.653007  0.297017  0.627956  1
  O  O96  1  0.975138  0.498374  0.877159  1
  O  O97  1  0.368666  0.198268  0.349099  1
  O  O98  1  0.143990  0.718677  0.629011  1
  O  O99  1  0.187494  0.893389  0.475654  1
  O  O100  1  0.665725  0.120972  0.843040  1
  O  O101  1  0.186232  0.927972  0.295070  1
  O  O102  1  0.686664  0.450355  0.298001  1
  O  O103  1  0.117995  0.066592  0.102155  1
  O  O104  1  0.683759  0.319083  0.474753  1
  O  O105  1  0.436142  0.946199  0.605485  1
  O  O106  1  0.301132  0.628534  0.848027  1
  O  O107  1  0.607117  0.812236  0.975124  1
  O  O108  1  0.044788  0.314384  0.798036  1
  O  O109  1  0.574750  0.805320  0.797384  1
  O  O110  1  0.182009  0.317947  0.975599  1
  O  O111  1  0.934453  0.378981  0.602389  1
