# generated using pymatgen
data_ZnPb3
_symmetry_space_group_name_H-M   'P 1'
_cell_length_a   6.07140596
_cell_length_b   6.07140596
_cell_length_c   6.07140596
_cell_angle_alpha   134.00461335
_cell_angle_beta   134.00461335
_cell_angle_gamma   67.08080274
_symmetry_Int_Tables_number   1
_chemical_formula_structural   ZnPb3
_chemical_formula_sum   'Zn1 Pb3'
_cell_volume   113.89513840
_cell_formula_units_Z   1
loop_
 _symmetry_equiv_pos_site_id
 _symmetry_equiv_pos_as_xyz
  1  'x, y, z'
loop_
 _atom_site_type_symbol
 _atom_site_label
 _atom_site_symmetry_multiplicity
 _atom_site_fract_x
 _atom_site_fract_y
 _atom_site_fract_z
 _atom_site_occupancy
  Zn  Zn0  1  0.000000  0.000000  0.000000  1
  Pb  Pb1  1  0.250000  0.750000  0.500000  1
  Pb  Pb2  1  0.750000  0.250000  0.500000  1
  Pb  Pb3  1  0.500000  0.500000  0.000000  1
