# generated using pymatgen
data_LaCoN3
_symmetry_space_group_name_H-M   'P 1'
_cell_length_a   5.77080083
_cell_length_b   5.77080083
_cell_length_c   7.51157973
_cell_angle_alpha   77.52341697
_cell_angle_beta   102.47658303
_cell_angle_gamma   138.70649560
_symmetry_Int_Tables_number   1
_chemical_formula_structural   LaCoN3
_chemical_formula_sum   'La2 Co2 N6'
_cell_volume   160.61959698
_cell_formula_units_Z   2
loop_
 _symmetry_equiv_pos_site_id
 _symmetry_equiv_pos_as_xyz
  1  'x, y, z'
loop_
 _atom_site_type_symbol
 _atom_site_label
 _atom_site_symmetry_multiplicity
 _atom_site_fract_x
 _atom_site_fract_y
 _atom_site_fract_z
 _atom_site_occupancy
  La  La0  1  0.164078  0.835922  0.803206  1
  La  La1  1  0.835922  0.164078  0.196794  1
  Co  Co2  1  0.458741  0.541259  0.845546  1
  Co  Co3  1  0.541259  0.458741  0.154454  1
  N  N4  1  0.633828  0.366172  0.974291  1
  N  N5  1  0.366172  0.633828  0.025709  1
  N  N6  1  0.394082  0.605918  0.619049  1
  N  N7  1  0.648515  0.351485  0.540380  1
  N  N8  1  0.605918  0.394082  0.380951  1
  N  N9  1  0.351485  0.648515  0.459620  1
