# generated using pymatgen
data_Ti3Se4
_symmetry_space_group_name_H-M   'P 1'
_cell_length_a   9.94010881
_cell_length_b   9.94010881
_cell_length_c   3.56432342
_cell_angle_alpha   90.00000000
_cell_angle_beta   90.00000000
_cell_angle_gamma   120.00000000
_symmetry_Int_Tables_number   1
_chemical_formula_structural   Ti3Se4
_chemical_formula_sum   'Ti6 Se8'
_cell_volume   304.99309923
_cell_formula_units_Z   2
loop_
 _symmetry_equiv_pos_site_id
 _symmetry_equiv_pos_as_xyz
  1  'x, y, z'
loop_
 _atom_site_type_symbol
 _atom_site_label
 _atom_site_symmetry_multiplicity
 _atom_site_fract_x
 _atom_site_fract_y
 _atom_site_fract_z
 _atom_site_occupancy
  Ti  Ti0  1  0.510750  0.640499  0.750000  1
  Ti  Ti1  1  0.870252  0.510750  0.250000  1
  Ti  Ti2  1  0.640499  0.129748  0.250000  1
  Ti  Ti3  1  0.359501  0.870252  0.750000  1
  Ti  Ti4  1  0.129748  0.489250  0.750000  1
  Ti  Ti5  1  0.489250  0.359501  0.250000  1
  Se  Se6  1  0.648569  0.949403  0.750000  1
  Se  Se7  1  0.699165  0.648569  0.250000  1
  Se  Se8  1  0.949403  0.300835  0.250000  1
  Se  Se9  1  0.050597  0.699165  0.750000  1
  Se  Se10  1  0.300835  0.351431  0.750000  1
  Se  Se11  1  0.351431  0.050597  0.250000  1
  Se  Se12  1  0.333333  0.666667  0.250000  1
  Se  Se13  1  0.666667  0.333333  0.750000  1
