# generated using pymatgen
data_Fe3B
_symmetry_space_group_name_H-M   'P 1'
_cell_length_a   4.36349515
_cell_length_b   5.40616887
_cell_length_c   6.66140146
_cell_angle_alpha   90.00000000
_cell_angle_beta   90.00000000
_cell_angle_gamma   90.00000000
_symmetry_Int_Tables_number   1
_chemical_formula_structural   Fe3B
_chemical_formula_sum   'Fe12 B4'
_cell_volume   157.14107249
_cell_formula_units_Z   4
loop_
 _symmetry_equiv_pos_site_id
 _symmetry_equiv_pos_as_xyz
  1  'x, y, z'
loop_
 _atom_site_type_symbol
 _atom_site_label
 _atom_site_symmetry_multiplicity
 _atom_site_fract_x
 _atom_site_fract_y
 _atom_site_fract_z
 _atom_site_occupancy
  Fe  Fe0  1  0.617990  0.979871  0.250000  1
  Fe  Fe1  1  0.648556  0.675814  0.556024  1
  Fe  Fe2  1  0.648556  0.675814  0.943976  1
  Fe  Fe3  1  0.851444  0.175814  0.556024  1
  Fe  Fe4  1  0.851444  0.175814  0.943976  1
  Fe  Fe5  1  0.882010  0.479871  0.250000  1
  Fe  Fe6  1  0.117990  0.520129  0.750000  1
  Fe  Fe7  1  0.148556  0.824186  0.056024  1
  Fe  Fe8  1  0.148556  0.824186  0.443976  1
  Fe  Fe9  1  0.351444  0.324186  0.056024  1
  Fe  Fe10  1  0.351444  0.324186  0.443976  1
  Fe  Fe11  1  0.382010  0.020129  0.750000  1
  B  B12  1  0.574509  0.381972  0.750000  1
  B  B13  1  0.925491  0.881972  0.750000  1
  B  B14  1  0.074509  0.118028  0.250000  1
  B  B15  1  0.425491  0.618028  0.250000  1
