# generated using pymatgen
data_TlHgF3
_symmetry_space_group_name_H-M   'P 1'
_cell_length_a   6.37916173
_cell_length_b   9.05081878
_cell_length_c   13.14400326
_cell_angle_alpha   90.00000000
_cell_angle_beta   90.00000000
_cell_angle_gamma   90.00000000
_symmetry_Int_Tables_number   1
_chemical_formula_structural   TlHgF3
_chemical_formula_sum   'Tl8 Hg8 F24'
_cell_volume   758.89054214
_cell_formula_units_Z   8
loop_
 _symmetry_equiv_pos_site_id
 _symmetry_equiv_pos_as_xyz
  1  'x, y, z'
loop_
 _atom_site_type_symbol
 _atom_site_label
 _atom_site_symmetry_multiplicity
 _atom_site_fract_x
 _atom_site_fract_y
 _atom_site_fract_z
 _atom_site_occupancy
  Tl  Tl0  1  0.258579  0.000000  0.881477  1
  Tl  Tl1  1  0.758579  0.000000  0.618523  1
  Tl  Tl2  1  0.741421  0.000000  0.118523  1
  Tl  Tl3  1  0.241421  0.000000  0.381477  1
  Tl  Tl4  1  0.251259  0.500000  0.872533  1
  Tl  Tl5  1  0.751259  0.500000  0.627467  1
  Tl  Tl6  1  0.748741  0.500000  0.127467  1
  Tl  Tl7  1  0.248741  0.500000  0.372533  1
  Hg  Hg8  1  0.744216  0.250023  0.874518  1
  Hg  Hg9  1  0.244216  0.749977  0.625482  1
  Hg  Hg10  1  0.255784  0.250023  0.125482  1
  Hg  Hg11  1  0.755784  0.749977  0.374518  1
  Hg  Hg12  1  0.255784  0.749977  0.125482  1
  Hg  Hg13  1  0.755784  0.250023  0.374518  1
  Hg  Hg14  1  0.744216  0.749977  0.874518  1
  Hg  Hg15  1  0.244216  0.250023  0.625482  1
  F  F16  1  0.710336  0.000000  0.829996  1
  F  F17  1  0.210336  0.000000  0.670004  1
  F  F18  1  0.289664  0.000000  0.170004  1
  F  F19  1  0.789664  0.000000  0.329996  1
  F  F20  1  0.697181  0.500000  0.916217  1
  F  F21  1  0.197181  0.500000  0.583783  1
  F  F22  1  0.302819  0.500000  0.083783  1
  F  F23  1  0.802819  0.500000  0.416217  1
  F  F24  1  0.958936  0.301084  0.739248  1
  F  F25  1  0.458936  0.698916  0.760752  1
  F  F26  1  0.041064  0.301084  0.260752  1
  F  F27  1  0.541064  0.698916  0.239248  1
  F  F28  1  0.041064  0.698916  0.260752  1
  F  F29  1  0.541064  0.301084  0.239248  1
  F  F30  1  0.958936  0.698916  0.739248  1
  F  F31  1  0.458936  0.301084  0.760752  1
  F  F32  1  0.000000  0.190940  0.500000  1
  F  F33  1  0.500000  0.809060  0.000000  1
  F  F34  1  0.000000  0.809060  0.500000  1
  F  F35  1  0.500000  0.190940  0.000000  1
  F  F36  1  0.000000  0.204262  0.000000  1
  F  F37  1  0.500000  0.795738  0.500000  1
  F  F38  1  0.000000  0.795738  0.000000  1
  F  F39  1  0.500000  0.204262  0.500000  1
