# generated using pymatgen
data_Nd3Hg
_symmetry_space_group_name_H-M   'P 1'
_cell_length_a   6.16407934
_cell_length_b   6.16407934
_cell_length_c   6.16407934
_cell_angle_alpha   133.52802374
_cell_angle_beta   133.52802374
_cell_angle_gamma   67.82612645
_symmetry_Int_Tables_number   1
_chemical_formula_structural   Nd3Hg
_chemical_formula_sum   'Nd3 Hg1'
_cell_volume   121.00931406
_cell_formula_units_Z   1
loop_
 _symmetry_equiv_pos_site_id
 _symmetry_equiv_pos_as_xyz
  1  'x, y, z'
loop_
 _atom_site_type_symbol
 _atom_site_label
 _atom_site_symmetry_multiplicity
 _atom_site_fract_x
 _atom_site_fract_y
 _atom_site_fract_z
 _atom_site_occupancy
  Nd  Nd0  1  0.250000  0.750000  0.500000  1
  Nd  Nd1  1  0.750000  0.250000  0.500000  1
  Nd  Nd2  1  0.500000  0.500000  0.000000  1
  Hg  Hg3  1  0.000000  0.000000  0.000000  1
