# generated using pymatgen
data_Re3Ru
_symmetry_space_group_name_H-M   'P 1'
_cell_length_a   5.55321967
_cell_length_b   5.55321967
_cell_length_c   4.42644708
_cell_angle_alpha   90.00000000
_cell_angle_beta   90.00000000
_cell_angle_gamma   120.00000000
_symmetry_Int_Tables_number   1
_chemical_formula_structural   Re3Ru
_chemical_formula_sum   'Re6 Ru2'
_cell_volume   118.21582402
_cell_formula_units_Z   2
loop_
 _symmetry_equiv_pos_site_id
 _symmetry_equiv_pos_as_xyz
  1  'x, y, z'
loop_
 _atom_site_type_symbol
 _atom_site_label
 _atom_site_symmetry_multiplicity
 _atom_site_fract_x
 _atom_site_fract_y
 _atom_site_fract_z
 _atom_site_occupancy
  Re  Re0  1  0.164293  0.328586  0.250000  1
  Re  Re1  1  0.671414  0.835707  0.250000  1
  Re  Re2  1  0.164293  0.835707  0.250000  1
  Re  Re3  1  0.835707  0.671414  0.750000  1
  Re  Re4  1  0.328586  0.164293  0.750000  1
  Re  Re5  1  0.835707  0.164293  0.750000  1
  Ru  Ru6  1  0.333333  0.666667  0.750000  1
  Ru  Ru7  1  0.666667  0.333333  0.250000  1
