# generated using pymatgen
data_BaHfS3
_symmetry_space_group_name_H-M   'P 1'
_cell_length_a   3.88351800
_cell_length_b   8.80353500
_cell_length_c   14.51503900
_cell_angle_alpha   90.00000000
_cell_angle_beta   90.00000000
_cell_angle_gamma   90.00000000
_symmetry_Int_Tables_number   1
_chemical_formula_structural   BaHfS3
_chemical_formula_sum   'Ba4 Hf4 S12'
_cell_volume   496.25011988
_cell_formula_units_Z   4
loop_
 _symmetry_equiv_pos_site_id
 _symmetry_equiv_pos_as_xyz
  1  'x, y, z'
loop_
 _atom_site_type_symbol
 _atom_site_label
 _atom_site_symmetry_multiplicity
 _atom_site_fract_x
 _atom_site_fract_y
 _atom_site_fract_z
 _atom_site_occupancy
  Ba  Ba0  1  0.750000  0.064254  0.824726  1
  Ba  Ba1  1  0.250000  0.935746  0.175274  1
  Ba  Ba2  1  0.750000  0.564254  0.675274  1
  Ba  Ba3  1  0.250000  0.435746  0.324726  1
  Hf  Hf4  1  0.250000  0.163423  0.557626  1
  Hf  Hf5  1  0.750000  0.836577  0.442374  1
  Hf  Hf6  1  0.250000  0.663423  0.942374  1
  Hf  Hf7  1  0.750000  0.336577  0.057626  1
  S  S8  1  0.750000  0.326101  0.494770  1
  S  S9  1  0.250000  0.673899  0.505229  1
  S  S10  1  0.750000  0.826101  0.005230  1
  S  S11  1  0.250000  0.173899  0.994771  1
  S  S12  1  0.250000  0.020439  0.398271  1
  S  S13  1  0.750000  0.979561  0.601729  1
  S  S14  1  0.250000  0.520439  0.101729  1
  S  S15  1  0.750000  0.479561  0.898271  1
  S  S16  1  0.250000  0.281613  0.709481  1
  S  S17  1  0.750000  0.718387  0.290519  1
  S  S18  1  0.250000  0.781613  0.790519  1
  S  S19  1  0.750000  0.218387  0.209481  1
