# generated using pymatgen
data_ZnCO3
_symmetry_space_group_name_H-M   'P 1'
_cell_length_a   5.76844535
_cell_length_b   5.76844535
_cell_length_c   5.76844535
_cell_angle_alpha   48.31382092
_cell_angle_beta   48.31382092
_cell_angle_gamma   48.31382092
_symmetry_Int_Tables_number   1
_chemical_formula_structural   ZnCO3
_chemical_formula_sum   'Zn2 C2 O6'
_cell_volume   98.13938982
_cell_formula_units_Z   2
loop_
 _symmetry_equiv_pos_site_id
 _symmetry_equiv_pos_as_xyz
  1  'x, y, z'
loop_
 _atom_site_type_symbol
 _atom_site_label
 _atom_site_symmetry_multiplicity
 _atom_site_fract_x
 _atom_site_fract_y
 _atom_site_fract_z
 _atom_site_occupancy
  Zn  Zn0  1  0.500000  0.500000  0.500000  1
  Zn  Zn1  1  0.000000  0.000000  0.000000  1
  C  C2  1  0.250000  0.250000  0.250000  1
  C  C3  1  0.750000  0.750000  0.750000  1
  O  O4  1  0.524952  0.975048  0.250000  1
  O  O5  1  0.250000  0.524952  0.975048  1
  O  O6  1  0.024952  0.750000  0.475048  1
  O  O7  1  0.475048  0.024952  0.750000  1
  O  O8  1  0.750000  0.475048  0.024952  1
  O  O9  1  0.975048  0.250000  0.524952  1
