# generated using pymatgen
data_PbAuO2
_symmetry_space_group_name_H-M   'P 1'
_cell_length_a   3.76368148
_cell_length_b   5.66471408
_cell_length_c   6.97396409
_cell_angle_alpha   88.21095680
_cell_angle_beta   82.51150481
_cell_angle_gamma   89.32647986
_symmetry_Int_Tables_number   1
_chemical_formula_structural   PbAuO2
_chemical_formula_sum   'Pb2 Au2 O4'
_cell_volume   147.34173824
_cell_formula_units_Z   2
loop_
 _symmetry_equiv_pos_site_id
 _symmetry_equiv_pos_as_xyz
  1  'x, y, z'
loop_
 _atom_site_type_symbol
 _atom_site_label
 _atom_site_symmetry_multiplicity
 _atom_site_fract_x
 _atom_site_fract_y
 _atom_site_fract_z
 _atom_site_occupancy
  Pb  Pb0  1  0.313660  0.496952  0.262781  1
  Pb  Pb1  1  0.686340  0.503048  0.737219  1
  Au  Au2  1  0.000000  0.000000  0.500000  1
  Au  Au3  1  0.000000  0.000000  0.000000  1
  O  O4  1  0.210309  0.313453  0.566814  1
  O  O5  1  0.890199  0.176627  0.251619  1
  O  O6  1  0.109801  0.823373  0.748381  1
  O  O7  1  0.789691  0.686547  0.433186  1
