# generated using pymatgen
data_Li2Mg
_symmetry_space_group_name_H-M   'P 1'
_cell_length_a   5.90391431
_cell_length_b   5.90391431
_cell_length_c   5.90391431
_cell_angle_alpha   53.54672115
_cell_angle_beta   53.54672115
_cell_angle_gamma   53.54672115
_symmetry_Int_Tables_number   1
_chemical_formula_structural   Li2Mg
_chemical_formula_sum   'Li4 Mg2'
_cell_volume   123.54472775
_cell_formula_units_Z   2
loop_
 _symmetry_equiv_pos_site_id
 _symmetry_equiv_pos_as_xyz
  1  'x, y, z'
loop_
 _atom_site_type_symbol
 _atom_site_label
 _atom_site_symmetry_multiplicity
 _atom_site_fract_x
 _atom_site_fract_y
 _atom_site_fract_z
 _atom_site_occupancy
  Li  Li0  1  0.666670  0.333330  1.000000  1
  Li  Li1  1  0.333330  0.000000  0.666670  1
  Li  Li2  1  1.000000  0.666670  0.333330  1
  Li  Li3  1  0.500000  0.500000  0.500000  1
  Mg  Mg4  1  0.166695  0.166695  0.166695  1
  Mg  Mg5  1  0.833305  0.833305  0.833305  1
