# generated using pymatgen
data_CsSnF3
_symmetry_space_group_name_H-M   'P 1'
_cell_length_a   4.77234069
_cell_length_b   4.91583927
_cell_length_c   5.04051998
_cell_angle_alpha   94.56654242
_cell_angle_beta   92.35238850
_cell_angle_gamma   91.16891317
_symmetry_Int_Tables_number   1
_chemical_formula_structural   CsSnF3
_chemical_formula_sum   'Cs1 Sn1 F3'
_cell_volume   117.74292336
_cell_formula_units_Z   1
loop_
 _symmetry_equiv_pos_site_id
 _symmetry_equiv_pos_as_xyz
  1  'x, y, z'
loop_
 _atom_site_type_symbol
 _atom_site_label
 _atom_site_symmetry_multiplicity
 _atom_site_fract_x
 _atom_site_fract_y
 _atom_site_fract_z
 _atom_site_occupancy
  Cs  Cs0  1  0.005799  0.001771  0.985473  1
  Sn  Sn1  1  0.504305  0.498685  0.486730  1
  F  F2  1  0.962259  0.528132  0.531340  1
  F  F3  1  0.514852  0.525840  0.908074  1
  F  F4  1  0.512783  0.935575  0.528383  1
