# generated using pymatgen
data_KNaMo(OF2)2
_symmetry_space_group_name_H-M   'P 1'
_cell_length_a   6.07679147
_cell_length_b   6.07679147
_cell_length_c   8.46392144
_cell_angle_alpha   90.00000000
_cell_angle_beta   90.00000000
_cell_angle_gamma   90.00000000
_symmetry_Int_Tables_number   1
_chemical_formula_structural   KNaMo(OF2)2
_chemical_formula_sum   'K2 Na2 Mo2 O4 F8'
_cell_volume   312.55056662
_cell_formula_units_Z   2
loop_
 _symmetry_equiv_pos_site_id
 _symmetry_equiv_pos_as_xyz
  1  'x, y, z'
loop_
 _atom_site_type_symbol
 _atom_site_label
 _atom_site_symmetry_multiplicity
 _atom_site_fract_x
 _atom_site_fract_y
 _atom_site_fract_z
 _atom_site_occupancy
  K  K0  1  0.000000  0.000000  0.500000  1
  K  K1  1  0.500000  0.500000  0.500000  1
  Na  Na2  1  0.500000  0.000000  0.227071  1
  Na  Na3  1  0.000000  0.500000  0.772929  1
  Mo  Mo4  1  0.000000  0.500000  0.253935  1
  Mo  Mo5  1  0.500000  0.000000  0.746065  1
  O  O6  1  0.000000  0.500000  0.044491  1
  O  O7  1  0.000000  0.500000  0.472864  1
  O  O8  1  0.500000  0.000000  0.527136  1
  O  O9  1  0.500000  0.000000  0.955509  1
  F  F10  1  0.770098  0.270098  0.262131  1
  F  F11  1  0.229902  0.270098  0.262131  1
  F  F12  1  0.770098  0.729902  0.262131  1
  F  F13  1  0.229902  0.729902  0.262131  1
  F  F14  1  0.270098  0.770098  0.737869  1
  F  F15  1  0.729902  0.770098  0.737869  1
  F  F16  1  0.270098  0.229902  0.737869  1
  F  F17  1  0.729902  0.229902  0.737869  1
