# generated using pymatgen
data_LiLa3
_symmetry_space_group_name_H-M   'P 1'
_cell_length_a   7.37529047
_cell_length_b   7.37529047
_cell_length_c   5.45343307
_cell_angle_alpha   90.00000000
_cell_angle_beta   90.00000000
_cell_angle_gamma   120.00000000
_symmetry_Int_Tables_number   1
_chemical_formula_structural   LiLa3
_chemical_formula_sum   'Li2 La6'
_cell_volume   256.89690814
_cell_formula_units_Z   2
loop_
 _symmetry_equiv_pos_site_id
 _symmetry_equiv_pos_as_xyz
  1  'x, y, z'
loop_
 _atom_site_type_symbol
 _atom_site_label
 _atom_site_symmetry_multiplicity
 _atom_site_fract_x
 _atom_site_fract_y
 _atom_site_fract_z
 _atom_site_occupancy
  Li  Li0  1  0.666667  0.333333  0.250000  1
  Li  Li1  1  0.333333  0.666667  0.750000  1
  La  La2  1  0.824952  0.175048  0.750000  1
  La  La3  1  0.350095  0.175048  0.750000  1
  La  La4  1  0.824952  0.649905  0.750000  1
  La  La5  1  0.175048  0.350095  0.250000  1
  La  La6  1  0.649905  0.824952  0.250000  1
  La  La7  1  0.175048  0.824952  0.250000  1
