# generated using pymatgen
data_BaSm2PtO5
_symmetry_space_group_name_H-M   'P 1'
_cell_length_a   6.74426368
_cell_length_b   6.74426368
_cell_length_c   5.97855145
_cell_angle_alpha   90.00000000
_cell_angle_beta   90.00000000
_cell_angle_gamma   90.00000000
_symmetry_Int_Tables_number   1
_chemical_formula_structural   BaSm2PtO5
_chemical_formula_sum   'Ba2 Sm4 Pt2 O10'
_cell_volume   271.93496623
_cell_formula_units_Z   2
loop_
 _symmetry_equiv_pos_site_id
 _symmetry_equiv_pos_as_xyz
  1  'x, y, z'
loop_
 _atom_site_type_symbol
 _atom_site_label
 _atom_site_symmetry_multiplicity
 _atom_site_fract_x
 _atom_site_fract_y
 _atom_site_fract_z
 _atom_site_occupancy
  Ba  Ba0  1  0.000000  0.000000  0.000000  1
  Ba  Ba1  1  0.500000  0.500000  0.000000  1
  Sm  Sm2  1  0.825528  0.674472  0.500000  1
  Sm  Sm3  1  0.674472  0.174472  0.500000  1
  Sm  Sm4  1  0.325528  0.825528  0.500000  1
  Sm  Sm5  1  0.174472  0.325528  0.500000  1
  Pt  Pt6  1  0.500000  0.000000  0.000000  1
  Pt  Pt7  1  0.000000  0.500000  0.000000  1
  O  O8  1  0.500000  0.500000  0.500000  1
  O  O9  1  0.000000  0.000000  0.500000  1
  O  O10  1  0.139193  0.639193  0.257244  1
  O  O11  1  0.860807  0.360807  0.257244  1
  O  O12  1  0.360807  0.139193  0.257244  1
  O  O13  1  0.639193  0.860807  0.257244  1
  O  O14  1  0.139193  0.639193  0.742756  1
  O  O15  1  0.639193  0.860807  0.742756  1
  O  O16  1  0.860807  0.360807  0.742756  1
  O  O17  1  0.360807  0.139193  0.742756  1
