# generated using pymatgen
data_Tl3BiCl6
_symmetry_space_group_name_H-M   'P 1'
_cell_length_a   9.09494191
_cell_length_b   9.09494191
_cell_length_c   7.68866195
_cell_angle_alpha   90.00000000
_cell_angle_beta   90.00000000
_cell_angle_gamma   90.00000000
_symmetry_Int_Tables_number   1
_chemical_formula_structural   Tl3BiCl6
_chemical_formula_sum   'Tl6 Bi2 Cl12'
_cell_volume   635.99049581
_cell_formula_units_Z   2
loop_
 _symmetry_equiv_pos_site_id
 _symmetry_equiv_pos_as_xyz
  1  'x, y, z'
loop_
 _atom_site_type_symbol
 _atom_site_label
 _atom_site_symmetry_multiplicity
 _atom_site_fract_x
 _atom_site_fract_y
 _atom_site_fract_z
 _atom_site_occupancy
  Tl  Tl0  1  0.500000  0.500000  0.000000  1
  Tl  Tl1  1  0.500000  0.500000  0.500000  1
  Tl  Tl2  1  0.263092  0.083905  0.000000  1
  Tl  Tl3  1  0.736908  0.916095  0.000000  1
  Tl  Tl4  1  0.083905  0.736908  0.500000  1
  Tl  Tl5  1  0.916095  0.263092  0.500000  1
  Bi  Bi6  1  0.000000  0.500000  0.000000  1
  Bi  Bi7  1  0.500000  0.000000  0.500000  1
  Cl  Cl8  1  0.563225  0.202384  0.249300  1
  Cl  Cl9  1  0.436775  0.797616  0.249300  1
  Cl  Cl10  1  0.202384  0.436775  0.749300  1
  Cl  Cl11  1  0.797616  0.563225  0.749300  1
  Cl  Cl12  1  0.436775  0.797616  0.750700  1
  Cl  Cl13  1  0.563225  0.202384  0.750700  1
  Cl  Cl14  1  0.797616  0.563225  0.250700  1
  Cl  Cl15  1  0.202384  0.436775  0.250700  1
  Cl  Cl16  1  0.206926  0.063498  0.500000  1
  Cl  Cl17  1  0.793074  0.936502  0.500000  1
  Cl  Cl18  1  0.063498  0.793074  0.000000  1
  Cl  Cl19  1  0.936502  0.206926  0.000000  1
