# generated using pymatgen
data_YWN3
_symmetry_space_group_name_H-M   'P 1'
_cell_length_a   3.59485000
_cell_length_b   6.01453000
_cell_length_c   6.13574000
_cell_angle_alpha   90.00000000
_cell_angle_beta   90.00000000
_cell_angle_gamma   90.00000000
_symmetry_Int_Tables_number   1
_chemical_formula_structural   YWN3
_chemical_formula_sum   'Y2 W2 N6'
_cell_volume   132.66287879
_cell_formula_units_Z   2
loop_
 _symmetry_equiv_pos_site_id
 _symmetry_equiv_pos_as_xyz
  1  'x, y, z'
loop_
 _atom_site_type_symbol
 _atom_site_label
 _atom_site_symmetry_multiplicity
 _atom_site_fract_x
 _atom_site_fract_y
 _atom_site_fract_z
 _atom_site_occupancy
  Y  Y0  1  0.000000  0.152790  0.288530  1
  Y  Y1  1  0.000000  0.847210  0.788530  1
  W  W2  1  0.500000  0.690840  0.318560  1
  W  W3  1  0.500000  0.309160  0.818560  1
  N  N4  1  0.500000  0.106700  0.585580  1
  N  N5  1  0.500000  0.585160  0.695030  1
  N  N6  1  0.000000  0.772050  0.416830  1
  N  N7  1  0.500000  0.893300  0.085580  1
  N  N8  1  0.000000  0.227950  0.916830  1
  N  N9  1  0.500000  0.414840  0.195030  1
