# generated using pymatgen
data_SmAl
_symmetry_space_group_name_H-M   'P 1'
_cell_length_a   5.70806659
_cell_length_b   5.93882174
_cell_length_c   11.68770641
_cell_angle_alpha   90.00000000
_cell_angle_beta   90.00000000
_cell_angle_gamma   90.00000000
_symmetry_Int_Tables_number   1
_chemical_formula_structural   SmAl
_chemical_formula_sum   'Sm8 Al8'
_cell_volume   396.20377977
_cell_formula_units_Z   8
loop_
 _symmetry_equiv_pos_site_id
 _symmetry_equiv_pos_as_xyz
  1  'x, y, z'
loop_
 _atom_site_type_symbol
 _atom_site_label
 _atom_site_symmetry_multiplicity
 _atom_site_fract_x
 _atom_site_fract_y
 _atom_site_fract_z
 _atom_site_occupancy
  Sm  Sm0  1  0.250000  0.163042  0.512653  1
  Sm  Sm1  1  0.250000  0.403638  0.833215  1
  Sm  Sm2  1  0.250000  0.836958  0.012653  1
  Sm  Sm3  1  0.250000  0.596362  0.333215  1
  Sm  Sm4  1  0.750000  0.403638  0.666785  1
  Sm  Sm5  1  0.750000  0.163042  0.987347  1
  Sm  Sm6  1  0.750000  0.596362  0.166785  1
  Sm  Sm7  1  0.750000  0.836958  0.487347  1
  Al  Al8  1  0.000000  0.929712  0.750000  1
  Al  Al9  1  0.000000  0.070288  0.250000  1
  Al  Al10  1  0.250000  0.664984  0.600500  1
  Al  Al11  1  0.250000  0.335016  0.100500  1
  Al  Al12  1  0.500000  0.929712  0.750000  1
  Al  Al13  1  0.500000  0.070288  0.250000  1
  Al  Al14  1  0.750000  0.664984  0.899500  1
  Al  Al15  1  0.750000  0.335016  0.399500  1
