# generated using pymatgen
data_K3Rh
_symmetry_space_group_name_H-M   'P 1'
_cell_length_a   7.88755249
_cell_length_b   7.88755249
_cell_length_c   5.62061381
_cell_angle_alpha   90.00000000
_cell_angle_beta   90.00000000
_cell_angle_gamma   120.00000000
_symmetry_Int_Tables_number   1
_chemical_formula_structural   K3Rh
_chemical_formula_sum   'K6 Rh2'
_cell_volume   302.83000425
_cell_formula_units_Z   2
loop_
 _symmetry_equiv_pos_site_id
 _symmetry_equiv_pos_as_xyz
  1  'x, y, z'
loop_
 _atom_site_type_symbol
 _atom_site_label
 _atom_site_symmetry_multiplicity
 _atom_site_fract_x
 _atom_site_fract_y
 _atom_site_fract_z
 _atom_site_occupancy
  K  K0  1  0.187221  0.374443  0.250000  1
  K  K1  1  0.625557  0.812779  0.250000  1
  K  K2  1  0.187221  0.812779  0.250000  1
  K  K3  1  0.812779  0.625557  0.750000  1
  K  K4  1  0.374443  0.187221  0.750000  1
  K  K5  1  0.812779  0.187221  0.750000  1
  Rh  Rh6  1  0.333333  0.666667  0.750000  1
  Rh  Rh7  1  0.666667  0.333333  0.250000  1
