# generated using pymatgen
data_Na6FeS4
_symmetry_space_group_name_H-M   'P 1'
_cell_length_a   8.94658788
_cell_length_b   8.94658788
_cell_length_c   6.94735417
_cell_angle_alpha   90.00000000
_cell_angle_beta   90.00000000
_cell_angle_gamma   120.00000000
_symmetry_Int_Tables_number   1
_chemical_formula_structural   Na6FeS4
_chemical_formula_sum   'Na12 Fe2 S8'
_cell_volume   481.57611134
_cell_formula_units_Z   2
loop_
 _symmetry_equiv_pos_site_id
 _symmetry_equiv_pos_as_xyz
  1  'x, y, z'
loop_
 _atom_site_type_symbol
 _atom_site_label
 _atom_site_symmetry_multiplicity
 _atom_site_fract_x
 _atom_site_fract_y
 _atom_site_fract_z
 _atom_site_occupancy
  Na  Na0  1  0.146869  0.853131  0.539430  1
  Na  Na1  1  0.293737  0.146869  0.039430  1
  Na  Na2  1  0.853131  0.706263  0.039430  1
  Na  Na3  1  0.146869  0.293737  0.539430  1
  Na  Na4  1  0.706263  0.853131  0.539430  1
  Na  Na5  1  0.853131  0.146869  0.039430  1
  Na  Na6  1  0.531708  0.468292  0.368704  1
  Na  Na7  1  0.063415  0.531708  0.868704  1
  Na  Na8  1  0.468292  0.936585  0.868704  1
  Na  Na9  1  0.531708  0.063415  0.368704  1
  Na  Na10  1  0.936585  0.468292  0.368704  1
  Na  Na11  1  0.468292  0.531708  0.868704  1
  Fe  Fe12  1  0.666667  0.333333  0.752869  1
  Fe  Fe13  1  0.333333  0.666667  0.252869  1
  S  S14  1  0.810891  0.189109  0.645879  1
  S  S15  1  0.621782  0.810891  0.145879  1
  S  S16  1  0.333333  0.666667  0.591991  1
  S  S17  1  0.666667  0.333333  0.091991  1
  S  S18  1  0.189109  0.810891  0.145879  1
  S  S19  1  0.378218  0.189109  0.645879  1
  S  S20  1  0.810891  0.621782  0.645879  1
  S  S21  1  0.189109  0.378218  0.145879  1
