# generated using pymatgen
data_SrWN3
_symmetry_space_group_name_H-M   'P 1'
_cell_length_a   3.69437000
_cell_length_b   6.40311965
_cell_length_c   6.72437018
_cell_angle_alpha   110.44459184
_cell_angle_beta   96.78058925
_cell_angle_gamma   90.93453666
_symmetry_Int_Tables_number   1
_chemical_formula_structural   SrWN3
_chemical_formula_sum   'Sr2 W2 N6'
_cell_volume   147.72274822
_cell_formula_units_Z   2
loop_
 _symmetry_equiv_pos_site_id
 _symmetry_equiv_pos_as_xyz
  1  'x, y, z'
loop_
 _atom_site_type_symbol
 _atom_site_label
 _atom_site_symmetry_multiplicity
 _atom_site_fract_x
 _atom_site_fract_y
 _atom_site_fract_z
 _atom_site_occupancy
  Sr  Sr0  1  0.033980  0.917170  0.360690  1
  Sr  Sr1  1  0.963320  0.386690  0.892450  1
  W  W2  1  0.522750  0.417130  0.365860  1
  W  W3  1  0.443020  0.895330  0.871480  1
  N  N4  1  0.036860  0.487430  0.313340  1
  N  N5  1  0.617840  0.757300  0.573310  1
  N  N6  1  0.482690  0.721080  0.032860  1
  N  N7  1  0.916920  0.873290  0.736240  1
  N  N8  1  0.541770  0.245160  0.528350  1
  N  N9  1  0.489250  0.194540  0.055720  1
