# generated using pymatgen
data_Ba2UCuO6
_symmetry_space_group_name_H-M   'P 1'
_cell_length_a   6.14121601
_cell_length_b   6.14121601
_cell_length_c   6.14121601
_cell_angle_alpha   123.56158469
_cell_angle_beta   123.56158469
_cell_angle_gamma   83.93446407
_symmetry_Int_Tables_number   1
_chemical_formula_structural   Ba2UCuO6
_chemical_formula_sum   'Ba2 U1 Cu1 O6'
_cell_volume   154.01387842
_cell_formula_units_Z   1
loop_
 _symmetry_equiv_pos_site_id
 _symmetry_equiv_pos_as_xyz
  1  'x, y, z'
loop_
 _atom_site_type_symbol
 _atom_site_label
 _atom_site_symmetry_multiplicity
 _atom_site_fract_x
 _atom_site_fract_y
 _atom_site_fract_z
 _atom_site_occupancy
  Ba  Ba0  1  0.250000  0.750000  0.500000  1
  Ba  Ba1  1  0.750000  0.250000  0.500000  1
  U  U2  1  0.000000  0.000000  0.000000  1
  Cu  Cu3  1  0.500000  0.500000  0.000000  1
  O  O4  1  0.742980  0.742980  0.485961  1
  O  O5  1  0.742980  0.257020  1.000000  1
  O  O6  1  0.257020  0.742980  0.000000  1
  O  O7  1  0.257020  0.257020  0.514039  1
  O  O8  1  0.223796  0.223796  0.000000  1
  O  O9  1  0.776204  0.776204  0.000000  1
