# generated using pymatgen
data_LiMgPO4
_symmetry_space_group_name_H-M   'P 1'
_cell_length_a   4.73930228
_cell_length_b   5.97221008
_cell_length_c   10.25467534
_cell_angle_alpha   90.00000000
_cell_angle_beta   90.00000000
_cell_angle_gamma   90.00000000
_symmetry_Int_Tables_number   1
_chemical_formula_structural   LiMgPO4
_chemical_formula_sum   'Li4 Mg4 P4 O16'
_cell_volume   290.24944703
_cell_formula_units_Z   4
loop_
 _symmetry_equiv_pos_site_id
 _symmetry_equiv_pos_as_xyz
  1  'x, y, z'
loop_
 _atom_site_type_symbol
 _atom_site_label
 _atom_site_symmetry_multiplicity
 _atom_site_fract_x
 _atom_site_fract_y
 _atom_site_fract_z
 _atom_site_occupancy
  Li  Li0  1  0.000000  0.000000  0.000000  1
  Li  Li1  1  0.500000  0.000000  0.500000  1
  Li  Li2  1  0.000000  0.500000  0.000000  1
  Li  Li3  1  0.500000  0.500000  0.500000  1
  Mg  Mg4  1  0.017370  0.750000  0.278107  1
  Mg  Mg5  1  0.982630  0.250000  0.721893  1
  Mg  Mg6  1  0.482630  0.750000  0.778107  1
  Mg  Mg7  1  0.517370  0.250000  0.221893  1
  P  P8  1  0.082377  0.250000  0.404947  1
  P  P9  1  0.417623  0.250000  0.904947  1
  P  P10  1  0.917623  0.750000  0.595053  1
  P  P11  1  0.582377  0.750000  0.095053  1
  O  O12  1  0.780365  0.544266  0.666240  1
  O  O13  1  0.219635  0.455734  0.333760  1
  O  O14  1  0.719635  0.544266  0.166240  1
  O  O15  1  0.780365  0.955734  0.666240  1
  O  O16  1  0.280365  0.044266  0.833760  1
  O  O17  1  0.741768  0.250000  0.898400  1
  O  O18  1  0.280365  0.455734  0.833760  1
  O  O19  1  0.219635  0.044266  0.333760  1
  O  O20  1  0.258232  0.750000  0.101600  1
  O  O21  1  0.758232  0.250000  0.398400  1
  O  O22  1  0.801480  0.750000  0.453435  1
  O  O23  1  0.241768  0.750000  0.601600  1
  O  O24  1  0.698520  0.750000  0.953435  1
  O  O25  1  0.301480  0.250000  0.046565  1
  O  O26  1  0.198520  0.250000  0.546565  1
  O  O27  1  0.719635  0.955734  0.166240  1
