# generated using pymatgen
data_CsInI3
_symmetry_space_group_name_H-M   'P 1'
_cell_length_a   10.93400776
_cell_length_b   11.07363317
_cell_length_c   11.37309577
_cell_angle_alpha   93.65627396
_cell_angle_beta   110.77200799
_cell_angle_gamma   100.66254914
_symmetry_Int_Tables_number   1
_chemical_formula_structural   CsInI3
_chemical_formula_sum   'Cs4 In4 I12'
_cell_volume   1252.69753228
_cell_formula_units_Z   4
loop_
 _symmetry_equiv_pos_site_id
 _symmetry_equiv_pos_as_xyz
  1  'x, y, z'
loop_
 _atom_site_type_symbol
 _atom_site_label
 _atom_site_symmetry_multiplicity
 _atom_site_fract_x
 _atom_site_fract_y
 _atom_site_fract_z
 _atom_site_occupancy
  Cs  Cs0  1  0.731450  0.897014  0.066237  1
  Cs  Cs1  1  0.268550  0.102986  0.933763  1
  Cs  Cs2  1  0.746432  0.373805  0.754611  1
  Cs  Cs3  1  0.253568  0.626195  0.245389  1
  In  In4  1  0.742042  0.799886  0.611106  1
  In  In5  1  0.768512  0.423726  0.231653  1
  In  In6  1  0.257958  0.200114  0.388894  1
  In  In7  1  0.231488  0.576274  0.768347  1
  I  I8  1  0.541173  0.658908  0.674331  1
  I  I9  1  0.069195  0.337341  0.393966  1
  I  I10  1  0.458827  0.341092  0.325669  1
  I  I11  1  0.930805  0.662659  0.606034  1
  I  I12  1  0.128546  0.393978  0.924628  1
  I  I13  1  0.380180  0.131913  0.624646  1
  I  I14  1  0.871454  0.606022  0.075372  1
  I  I15  1  0.619820  0.868087  0.375354  1
  I  I16  1  0.864571  0.011258  0.789954  1
  I  I17  1  0.643151  0.211798  0.005474  1
  I  I18  1  0.135429  0.988742  0.210046  1
  I  I19  1  0.356849  0.788202  0.994526  1
