# generated using pymatgen
data_MoRu3
_symmetry_space_group_name_H-M   'P 1'
_cell_length_a   5.51508010
_cell_length_b   5.51508010
_cell_length_c   4.37283837
_cell_angle_alpha   90.00000000
_cell_angle_beta   90.00000000
_cell_angle_gamma   120.00000000
_symmetry_Int_Tables_number   1
_chemical_formula_structural   MoRu3
_chemical_formula_sum   'Mo2 Ru6'
_cell_volume   115.18547170
_cell_formula_units_Z   2
loop_
 _symmetry_equiv_pos_site_id
 _symmetry_equiv_pos_as_xyz
  1  'x, y, z'
loop_
 _atom_site_type_symbol
 _atom_site_label
 _atom_site_symmetry_multiplicity
 _atom_site_fract_x
 _atom_site_fract_y
 _atom_site_fract_z
 _atom_site_occupancy
  Mo  Mo0  1  0.666667  0.333333  0.250000  1
  Mo  Mo1  1  0.333333  0.666667  0.750000  1
  Ru  Ru2  1  0.833403  0.166597  0.750000  1
  Ru  Ru3  1  0.333195  0.166597  0.750000  1
  Ru  Ru4  1  0.833403  0.666805  0.750000  1
  Ru  Ru5  1  0.166597  0.833403  0.250000  1
  Ru  Ru6  1  0.666805  0.833403  0.250000  1
  Ru  Ru7  1  0.166597  0.333195  0.250000  1
