# generated using pymatgen
data_Fe5B2P
_symmetry_space_group_name_H-M   'P 1'
_cell_length_a   6.43753061
_cell_length_b   6.43753061
_cell_length_c   6.43753061
_cell_angle_alpha   129.89895940
_cell_angle_beta   129.89895940
_cell_angle_gamma   73.56834635
_symmetry_Int_Tables_number   1
_chemical_formula_structural   Fe5B2P
_chemical_formula_sum   'Fe10 B4 P2'
_cell_volume   153.22567017
_cell_formula_units_Z   2
loop_
 _symmetry_equiv_pos_site_id
 _symmetry_equiv_pos_as_xyz
  1  'x, y, z'
loop_
 _atom_site_type_symbol
 _atom_site_label
 _atom_site_symmetry_multiplicity
 _atom_site_fract_x
 _atom_site_fract_y
 _atom_site_fract_z
 _atom_site_occupancy
  Fe  Fe0  1  0.500000  0.500000  0.000000  1
  Fe  Fe1  1  0.309942  0.467289  0.500000  1
  Fe  Fe2  1  0.809942  0.309942  0.842653  1
  Fe  Fe3  1  0.690058  0.532711  0.500000  1
  Fe  Fe4  1  0.032711  0.190058  0.500000  1
  Fe  Fe5  1  0.532711  0.032711  0.842653  1
  Fe  Fe6  1  0.190058  0.690058  0.157347  1
  Fe  Fe7  1  0.467289  0.967289  0.157347  1
  Fe  Fe8  1  0.000000  0.000000  0.000000  1
  Fe  Fe9  1  0.967289  0.809942  0.500000  1
  B  B10  1  0.881462  0.381462  0.262924  1
  B  B11  1  0.381462  0.118538  0.500000  1
  B  B12  1  0.118538  0.618538  0.737076  1
  B  B13  1  0.618538  0.881462  0.500000  1
  P  P14  1  0.250000  0.250000  0.000000  1
  P  P15  1  0.750000  0.750000  0.000000  1
