# generated using pymatgen
data_MgIn3
_symmetry_space_group_name_H-M   'P 1'
_cell_length_a   6.32772380
_cell_length_b   6.32772380
_cell_length_c   6.32772380
_cell_angle_alpha   149.02388300
_cell_angle_beta   126.64682858
_cell_angle_gamma   62.98249222
_symmetry_Int_Tables_number   1
_chemical_formula_structural   MgIn3
_chemical_formula_sum   'Mg1 In3'
_cell_volume   103.60554710
_cell_formula_units_Z   1
loop_
 _symmetry_equiv_pos_site_id
 _symmetry_equiv_pos_as_xyz
  1  'x, y, z'
loop_
 _atom_site_type_symbol
 _atom_site_label
 _atom_site_symmetry_multiplicity
 _atom_site_fract_x
 _atom_site_fract_y
 _atom_site_fract_z
 _atom_site_occupancy
  Mg  Mg0  1  0.168652  0.500000  0.668652  1
  In  In1  1  0.754298  0.753756  0.000542  1
  In  In2  1  0.246786  0.246244  0.000542  1
  In  In3  1  0.663600  1.000000  0.663600  1
