# generated using pymatgen
data_Mg3Cu
_symmetry_space_group_name_H-M   'P 1'
_cell_length_a   5.67905635
_cell_length_b   5.67905635
_cell_length_c   5.67905635
_cell_angle_alpha   146.78192434
_cell_angle_beta   129.76019067
_cell_angle_gamma   61.56462220
_symmetry_Int_Tables_number   1
_chemical_formula_structural   Mg3Cu
_chemical_formula_sum   'Mg3 Cu1'
_cell_volume   76.37577172
_cell_formula_units_Z   1
loop_
 _symmetry_equiv_pos_site_id
 _symmetry_equiv_pos_as_xyz
  1  'x, y, z'
loop_
 _atom_site_type_symbol
 _atom_site_label
 _atom_site_symmetry_multiplicity
 _atom_site_fract_x
 _atom_site_fract_y
 _atom_site_fract_z
 _atom_site_occupancy
  Mg  Mg0  1  0.783243  0.717354  0.065888  1
  Mg  Mg1  1  0.091172  0.500000  0.591172  1
  Mg  Mg2  1  0.348534  0.282646  0.065888  1
  Cu  Cu3  1  0.610378  0.000000  0.610378  1
