# generated using pymatgen
data_YWN3
_symmetry_space_group_name_H-M   'P 1'
_cell_length_a   7.38611996
_cell_length_b   7.38611996
_cell_length_c   6.31064466
_cell_angle_alpha   73.38243694
_cell_angle_beta   106.61756306
_cell_angle_gamma   98.47410866
_symmetry_Int_Tables_number   1
_chemical_formula_structural   YWN3
_chemical_formula_sum   'Y4 W4 N12'
_cell_volume   315.31168906
_cell_formula_units_Z   4
loop_
 _symmetry_equiv_pos_site_id
 _symmetry_equiv_pos_as_xyz
  1  'x, y, z'
loop_
 _atom_site_type_symbol
 _atom_site_label
 _atom_site_symmetry_multiplicity
 _atom_site_fract_x
 _atom_site_fract_y
 _atom_site_fract_z
 _atom_site_occupancy
  Y  Y0  1  0.711275  0.711275  0.750000  1
  Y  Y1  1  0.090236  0.090236  0.750000  1
  Y  Y2  1  0.288725  0.288725  0.250000  1
  Y  Y3  1  0.909764  0.909764  0.250000  1
  W  W4  1  0.798329  0.379861  0.224884  1
  W  W5  1  0.201671  0.620139  0.775116  1
  W  W6  1  0.379861  0.798329  0.275116  1
  W  W7  1  0.620139  0.201671  0.724884  1
  N  N8  1  0.885916  0.624876  0.160080  1
  N  N9  1  0.633552  0.343488  0.427400  1
  N  N10  1  0.780680  0.002356  0.844939  1
  N  N11  1  0.114084  0.375124  0.839920  1
  N  N12  1  0.002356  0.780680  0.655061  1
  N  N13  1  0.375124  0.114084  0.660080  1
  N  N14  1  0.624876  0.885916  0.339920  1
  N  N15  1  0.366448  0.656512  0.572600  1
  N  N16  1  0.343488  0.633552  0.072600  1
  N  N17  1  0.656512  0.366448  0.927400  1
  N  N18  1  0.219320  0.997644  0.155061  1
  N  N19  1  0.997644  0.219320  0.344939  1
