# generated using pymatgen
data_Zn3Sb
_symmetry_space_group_name_H-M   'P 1'
_cell_length_a   5.32897543
_cell_length_b   5.32897543
_cell_length_c   5.32897543
_cell_angle_alpha   134.14203147
_cell_angle_beta   134.14203147
_cell_angle_gamma   66.86625202
_symmetry_Int_Tables_number   1
_chemical_formula_structural   Zn3Sb
_chemical_formula_sum   'Zn3 Sb1'
_cell_volume   76.67401360
_cell_formula_units_Z   1
loop_
 _symmetry_equiv_pos_site_id
 _symmetry_equiv_pos_as_xyz
  1  'x, y, z'
loop_
 _atom_site_type_symbol
 _atom_site_label
 _atom_site_symmetry_multiplicity
 _atom_site_fract_x
 _atom_site_fract_y
 _atom_site_fract_z
 _atom_site_occupancy
  Zn  Zn0  1  0.250000  0.750000  0.500000  1
  Zn  Zn1  1  0.750000  0.250000  0.500000  1
  Zn  Zn2  1  0.500000  0.500000  0.000000  1
  Sb  Sb3  1  0.000000  0.000000  0.000000  1
