# generated using pymatgen
data_CuBrO2
_symmetry_space_group_name_H-M   'P 1'
_cell_length_a   6.62096397
_cell_length_b   6.62096397
_cell_length_c   3.85681993
_cell_angle_alpha   90.00000000
_cell_angle_beta   90.00000000
_cell_angle_gamma   114.73778345
_symmetry_Int_Tables_number   1
_chemical_formula_structural   CuBrO2
_chemical_formula_sum   'Cu2 Br2 O4'
_cell_volume   153.55671465
_cell_formula_units_Z   2
loop_
 _symmetry_equiv_pos_site_id
 _symmetry_equiv_pos_as_xyz
  1  'x, y, z'
loop_
 _atom_site_type_symbol
 _atom_site_label
 _atom_site_symmetry_multiplicity
 _atom_site_fract_x
 _atom_site_fract_y
 _atom_site_fract_z
 _atom_site_occupancy
  Cu  Cu0  1  0.264867  0.264867  1.000000  1
  Cu  Cu1  1  0.735133  0.735133  0.500000  1
  Br  Br2  1  0.367229  0.632771  0.750000  1
  Br  Br3  1  0.632771  0.367229  0.250000  1
  O  O4  1  0.177283  0.003489  0.283127  1
  O  O5  1  0.996511  0.822717  0.216873  1
  O  O6  1  0.003489  0.177283  0.716873  1
  O  O7  1  0.822717  0.996511  0.783127  1
