# generated using pymatgen
data_TbNiB4
_symmetry_space_group_name_H-M   'P 1'
_cell_length_a   6.83395042
_cell_length_b   6.83395042
_cell_length_c   6.83395042
_cell_angle_alpha   112.92702226
_cell_angle_beta   112.92702226
_cell_angle_gamma   102.76091719
_symmetry_Int_Tables_number   1
_chemical_formula_structural   TbNiB4
_chemical_formula_sum   'Tb4 Ni4 B16'
_cell_volume   243.20689354
_cell_formula_units_Z   4
loop_
 _symmetry_equiv_pos_site_id
 _symmetry_equiv_pos_as_xyz
  1  'x, y, z'
loop_
 _atom_site_type_symbol
 _atom_site_label
 _atom_site_symmetry_multiplicity
 _atom_site_fract_x
 _atom_site_fract_y
 _atom_site_fract_z
 _atom_site_occupancy
  Tb  Tb0  1  0.203415  0.203415  0.000000  1
  Tb  Tb1  1  0.796585  0.796585  0.000000  1
  Tb  Tb2  1  0.750000  0.250000  0.500000  1
  Tb  Tb3  1  0.250000  0.750000  0.500000  1
  Ni  Ni4  1  0.500000  0.271577  0.771577  1
  Ni  Ni5  1  0.500000  0.728423  0.228423  1
  Ni  Ni6  1  0.728423  0.500000  0.228423  1
  Ni  Ni7  1  0.271577  0.500000  0.771577  1
  B  B8  1  0.111588  0.275392  0.386980  1
  B  B9  1  0.888412  0.724608  0.613020  1
  B  B10  1  0.888412  0.275392  0.163805  1
  B  B11  1  0.111588  0.724608  0.836195  1
  B  B12  1  0.724608  0.888412  0.613020  1
  B  B13  1  0.275392  0.111588  0.386980  1
  B  B14  1  0.724608  0.111588  0.836195  1
  B  B15  1  0.275392  0.888412  0.163805  1
  B  B16  1  0.418825  0.418825  0.532441  1
  B  B17  1  0.886385  0.886385  0.467559  1
  B  B18  1  0.581175  0.113615  1.000000  1
  B  B19  1  0.113615  0.581175  0.000000  1
  B  B20  1  0.581175  0.581175  0.467559  1
  B  B21  1  0.113615  0.113615  0.532441  1
  B  B22  1  0.886385  0.418825  1.000000  1
  B  B23  1  0.418825  0.886385  0.000000  1
