# generated using pymatgen
data_Sm(MnAl2)4
_symmetry_space_group_name_H-M   'P 1'
_cell_length_a   6.71874058
_cell_length_b   6.71874058
_cell_length_c   6.71874058
_cell_angle_alpha   97.80565929
_cell_angle_beta   97.80565929
_cell_angle_gamma   136.75018128
_symmetry_Int_Tables_number   1
_chemical_formula_structural   Sm(MnAl2)4
_chemical_formula_sum   'Sm1 Mn4 Al8'
_cell_volume   193.18459260
_cell_formula_units_Z   1
loop_
 _symmetry_equiv_pos_site_id
 _symmetry_equiv_pos_as_xyz
  1  'x, y, z'
loop_
 _atom_site_type_symbol
 _atom_site_label
 _atom_site_symmetry_multiplicity
 _atom_site_fract_x
 _atom_site_fract_y
 _atom_site_fract_z
 _atom_site_occupancy
  Sm  Sm0  1  0.000000  0.000000  0.000000  1
  Mn  Mn1  1  1.000000  0.500000  0.000000  1
  Mn  Mn2  1  0.500000  1.000000  0.000000  1
  Mn  Mn3  1  0.500000  0.500000  0.500000  1
  Mn  Mn4  1  0.000000  0.000000  0.500000  1
  Al  Al5  1  0.279825  0.500000  0.779825  1
  Al  Al6  1  0.720175  0.500000  0.220175  1
  Al  Al7  1  0.500000  0.279825  0.779825  1
  Al  Al8  1  0.500000  0.720175  0.220175  1
  Al  Al9  1  0.657231  0.000000  0.657231  1
  Al  Al10  1  0.342769  1.000000  0.342769  1
  Al  Al11  1  0.000000  0.657231  0.657231  1
  Al  Al12  1  0.000000  0.342769  0.342769  1
