# generated using pymatgen
data_TmGePd
_symmetry_space_group_name_H-M   'P 1'
_cell_length_a   11.24253918
_cell_length_b   11.24253918
_cell_length_c   11.24253918
_cell_angle_alpha   157.37408948
_cell_angle_beta   140.56808301
_cell_angle_gamma   45.93960711
_symmetry_Int_Tables_number   1
_chemical_formula_structural   TmGePd
_chemical_formula_sum   'Tm6 Ge6 Pd6'
_cell_volume   346.33357228
_cell_formula_units_Z   6
loop_
 _symmetry_equiv_pos_site_id
 _symmetry_equiv_pos_as_xyz
  1  'x, y, z'
loop_
 _atom_site_type_symbol
 _atom_site_label
 _atom_site_symmetry_multiplicity
 _atom_site_fract_x
 _atom_site_fract_y
 _atom_site_fract_z
 _atom_site_occupancy
  Tm  Tm0  1  0.467003  0.000000  0.467003  1
  Tm  Tm1  1  0.132032  0.667182  0.464850  1
  Tm  Tm2  1  0.797668  0.332818  0.464850  1
  Tm  Tm3  1  0.048219  0.500000  0.548219  1
  Tm  Tm4  1  0.376482  0.833575  0.542908  1
  Tm  Tm5  1  0.709333  0.166425  0.542908  1
  Ge  Ge6  1  0.437118  0.592820  0.844298  1
  Ge  Ge7  1  0.251479  0.407181  0.844298  1
  Ge  Ge8  1  0.923584  0.763030  0.160554  1
  Ge  Ge9  1  0.397523  0.236970  0.160554  1
  Ge  Ge10  1  0.781490  0.934857  0.846633  1
  Ge  Ge11  1  0.911776  0.065143  0.846633  1
  Pd  Pd12  1  0.750994  0.572723  0.178271  1
  Pd  Pd13  1  0.605548  0.427277  0.178271  1
  Pd  Pd14  1  0.563068  0.731464  0.831605  1
  Pd  Pd15  1  0.100141  0.268536  0.831605  1
  Pd  Pd16  1  0.070161  0.894891  0.175270  1
  Pd  Pd17  1  0.280380  0.105109  0.175270  1
