# generated using pymatgen
data_EuNiGe3
_symmetry_space_group_name_H-M   'P 1'
_cell_length_a   5.86383402
_cell_length_b   5.86383402
_cell_length_c   5.86383402
_cell_angle_alpha   136.39496622
_cell_angle_beta   136.39496622
_cell_angle_gamma   63.37029879
_symmetry_Int_Tables_number   1
_chemical_formula_structural   EuNiGe3
_chemical_formula_sum   'Eu1 Ni1 Ge3'
_cell_volume   94.66983340
_cell_formula_units_Z   1
loop_
 _symmetry_equiv_pos_site_id
 _symmetry_equiv_pos_as_xyz
  1  'x, y, z'
loop_
 _atom_site_type_symbol
 _atom_site_label
 _atom_site_symmetry_multiplicity
 _atom_site_fract_x
 _atom_site_fract_y
 _atom_site_fract_z
 _atom_site_occupancy
  Eu  Eu0  1  0.000840  0.000840  0.000000  1
  Ni  Ni1  1  0.346678  0.346678  0.000000  1
  Ge  Ge2  1  0.247820  0.747820  0.500000  1
  Ge  Ge3  1  0.747820  0.247820  0.500000  1
  Ge  Ge4  1  0.582342  0.582342  0.000000  1
