# generated using pymatgen
data_BaZrSe3
_symmetry_space_group_name_H-M   'P 1'
_cell_length_a   4.07531851
_cell_length_b   9.18048304
_cell_length_c   15.17879845
_cell_angle_alpha   90.00000000
_cell_angle_beta   90.00000000
_cell_angle_gamma   90.00000000
_symmetry_Int_Tables_number   1
_chemical_formula_structural   BaZrSe3
_chemical_formula_sum   'Ba4 Zr4 Se12'
_cell_volume   567.89034354
_cell_formula_units_Z   4
loop_
 _symmetry_equiv_pos_site_id
 _symmetry_equiv_pos_as_xyz
  1  'x, y, z'
loop_
 _atom_site_type_symbol
 _atom_site_label
 _atom_site_symmetry_multiplicity
 _atom_site_fract_x
 _atom_site_fract_y
 _atom_site_fract_z
 _atom_site_occupancy
  Ba  Ba0  1  0.750000  0.066456  0.325455  1
  Ba  Ba1  1  0.250000  0.933544  0.674545  1
  Ba  Ba2  1  0.750000  0.566456  0.174545  1
  Ba  Ba3  1  0.250000  0.433544  0.825455  1
  Zr  Zr4  1  0.250000  0.163675  0.058976  1
  Zr  Zr5  1  0.750000  0.836325  0.941024  1
  Zr  Zr6  1  0.250000  0.663675  0.441024  1
  Zr  Zr7  1  0.750000  0.336325  0.558976  1
  Se  Se8  1  0.750000  0.331851  0.994558  1
  Se  Se9  1  0.250000  0.668149  0.005442  1
  Se  Se10  1  0.750000  0.831851  0.505442  1
  Se  Se11  1  0.250000  0.168149  0.494558  1
  Se  Se12  1  0.250000  0.024144  0.894933  1
  Se  Se13  1  0.750000  0.975856  0.105067  1
  Se  Se14  1  0.250000  0.524144  0.605067  1
  Se  Se15  1  0.750000  0.475856  0.394933  1
  Se  Se16  1  0.250000  0.286143  0.213318  1
  Se  Se17  1  0.750000  0.713857  0.786682  1
  Se  Se18  1  0.250000  0.786143  0.286682  1
  Se  Se19  1  0.750000  0.213857  0.713318  1
