# generated using pymatgen
data_NaLi2AsO4
_symmetry_space_group_name_H-M   'P 1'
_cell_length_a   5.15839613
_cell_length_b   5.34904611
_cell_length_c   7.02748283
_cell_angle_alpha   90.00000000
_cell_angle_beta   90.00000000
_cell_angle_gamma   90.00000000
_symmetry_Int_Tables_number   1
_chemical_formula_structural   NaLi2AsO4
_chemical_formula_sum   'Na2 Li4 As2 O8'
_cell_volume   193.90581122
_cell_formula_units_Z   2
loop_
 _symmetry_equiv_pos_site_id
 _symmetry_equiv_pos_as_xyz
  1  'x, y, z'
loop_
 _atom_site_type_symbol
 _atom_site_label
 _atom_site_symmetry_multiplicity
 _atom_site_fract_x
 _atom_site_fract_y
 _atom_site_fract_z
 _atom_site_occupancy
  Na  Na0  1  0.520479  0.800897  0.000000  1
  Na  Na1  1  0.020479  0.199103  0.500000  1
  Li  Li2  1  0.507348  0.323129  0.250588  1
  Li  Li3  1  0.007348  0.676871  0.750588  1
  Li  Li4  1  0.507348  0.323129  0.749412  1
  Li  Li5  1  0.007348  0.676871  0.249412  1
  As  As6  1  0.499128  0.810514  0.500000  1
  As  As7  1  0.999128  0.189486  0.000000  1
  O  O8  1  0.065261  0.871785  0.000000  1
  O  O9  1  0.666085  0.227403  0.000000  1
  O  O10  1  0.565261  0.128215  0.500000  1
  O  O11  1  0.166085  0.772597  0.500000  1
  O  O12  1  0.127226  0.328962  0.199811  1
  O  O13  1  0.627226  0.671038  0.300189  1
  O  O14  1  0.627226  0.671038  0.699811  1
  O  O15  1  0.127226  0.328962  0.800189  1
