# generated using pymatgen
data_Y4C7
_symmetry_space_group_name_H-M   'P 1'
_cell_length_a   3.72263618
_cell_length_b   13.77382811
_cell_length_c   6.48688377
_cell_angle_alpha   90.00000000
_cell_angle_beta   104.73670832
_cell_angle_gamma   90.00000000
_symmetry_Int_Tables_number   1
_chemical_formula_structural   Y4C7
_chemical_formula_sum   'Y8 C14'
_cell_volume   321.67327961
_cell_formula_units_Z   2
loop_
 _symmetry_equiv_pos_site_id
 _symmetry_equiv_pos_as_xyz
  1  'x, y, z'
loop_
 _atom_site_type_symbol
 _atom_site_label
 _atom_site_symmetry_multiplicity
 _atom_site_fract_x
 _atom_site_fract_y
 _atom_site_fract_z
 _atom_site_occupancy
  Y  Y0  1  0.366282  0.944913  0.738985  1
  Y  Y1  1  0.633718  0.444913  0.761015  1
  Y  Y2  1  0.633718  0.055087  0.261015  1
  Y  Y3  1  0.366282  0.555087  0.238985  1
  Y  Y4  1  0.056049  0.662567  0.660239  1
  Y  Y5  1  0.943951  0.162567  0.839761  1
  Y  Y6  1  0.943951  0.337433  0.339761  1
  Y  Y7  1  0.056049  0.837433  0.160239  1
  C  C8  1  0.000000  0.500000  0.500000  1
  C  C9  1  0.000000  0.000000  0.000000  1
  C  C10  1  0.469145  0.784207  0.923513  1
  C  C11  1  0.530855  0.284207  0.576487  1
  C  C12  1  0.530855  0.215793  0.076487  1
  C  C13  1  0.469145  0.715793  0.423513  1
  C  C14  1  0.378440  0.196601  0.547129  1
  C  C15  1  0.621560  0.696601  0.952871  1
  C  C16  1  0.267418  0.395389  0.050461  1
  C  C17  1  0.732582  0.895389  0.449539  1
  C  C18  1  0.732582  0.604611  0.949539  1
  C  C19  1  0.267418  0.104611  0.550461  1
  C  C20  1  0.378440  0.303399  0.047129  1
  C  C21  1  0.621560  0.803399  0.452871  1
