# generated using pymatgen
data_Zn3Rh
_symmetry_space_group_name_H-M   'P 1'
_cell_length_a   5.44713436
_cell_length_b   5.44713436
_cell_length_c   4.40418162
_cell_angle_alpha   90.00000000
_cell_angle_beta   90.00000000
_cell_angle_gamma   120.00000000
_symmetry_Int_Tables_number   1
_chemical_formula_structural   Zn3Rh
_chemical_formula_sum   'Zn6 Rh2'
_cell_volume   113.17018551
_cell_formula_units_Z   2
loop_
 _symmetry_equiv_pos_site_id
 _symmetry_equiv_pos_as_xyz
  1  'x, y, z'
loop_
 _atom_site_type_symbol
 _atom_site_label
 _atom_site_symmetry_multiplicity
 _atom_site_fract_x
 _atom_site_fract_y
 _atom_site_fract_z
 _atom_site_occupancy
  Zn  Zn0  1  0.168083  0.336167  0.250000  1
  Zn  Zn1  1  0.663833  0.831917  0.250000  1
  Zn  Zn2  1  0.168083  0.831917  0.250000  1
  Zn  Zn3  1  0.831917  0.663833  0.750000  1
  Zn  Zn4  1  0.336167  0.168083  0.750000  1
  Zn  Zn5  1  0.831917  0.168083  0.750000  1
  Rh  Rh6  1  0.333333  0.666667  0.750000  1
  Rh  Rh7  1  0.666667  0.333333  0.250000  1
