# generated using pymatgen
data_Ca3(AlSi)2
_symmetry_space_group_name_H-M   'P 1'
_cell_length_a   9.76391598
_cell_length_b   9.76391598
_cell_length_c   9.76391598
_cell_angle_alpha   155.83851112
_cell_angle_beta   153.16033841
_cell_angle_gamma   36.42170544
_symmetry_Int_Tables_number   1
_chemical_formula_structural   Ca3(AlSi)2
_chemical_formula_sum   'Ca3 Al2 Si2'
_cell_volume   171.79499808
_cell_formula_units_Z   1
loop_
 _symmetry_equiv_pos_site_id
 _symmetry_equiv_pos_as_xyz
  1  'x, y, z'
loop_
 _atom_site_type_symbol
 _atom_site_label
 _atom_site_symmetry_multiplicity
 _atom_site_fract_x
 _atom_site_fract_y
 _atom_site_fract_z
 _atom_site_occupancy
  Ca  Ca0  1  0.000000  0.500000  0.500000  1
  Ca  Ca1  1  0.813445  0.813445  0.000000  1
  Ca  Ca2  1  0.186555  0.186555  0.000000  1
  Al  Al3  1  0.568624  0.068624  0.500000  1
  Al  Al4  1  0.431376  0.931376  0.500000  1
  Si  Si5  1  0.644289  0.644289  0.000000  1
  Si  Si6  1  0.355711  0.355711  0.000000  1
