# generated using pymatgen
data_Th(Mg4Al3)4
_symmetry_space_group_name_H-M   'P 1'
_cell_length_a   9.26526565
_cell_length_b   9.26526565
_cell_length_c   9.26526565
_cell_angle_alpha   110.12704732
_cell_angle_beta   110.12704732
_cell_angle_gamma   110.12704732
_symmetry_Int_Tables_number   1
_chemical_formula_structural   Th(Mg4Al3)4
_chemical_formula_sum   'Th1 Mg16 Al12'
_cell_volume   596.95292902
_cell_formula_units_Z   1
loop_
 _symmetry_equiv_pos_site_id
 _symmetry_equiv_pos_as_xyz
  1  'x, y, z'
loop_
 _atom_site_type_symbol
 _atom_site_label
 _atom_site_symmetry_multiplicity
 _atom_site_fract_x
 _atom_site_fract_y
 _atom_site_fract_z
 _atom_site_occupancy
  Th  Th0  1  0.372642  0.372642  0.372642  1
  Mg  Mg1  1  0.653326  0.995919  0.995919  1
  Mg  Mg2  1  0.718472  0.316344  0.316344  1
  Mg  Mg3  1  0.278619  0.614026  0.614026  1
  Mg  Mg4  1  0.994582  0.994582  0.994582  1
  Mg  Mg5  1  0.001621  0.689109  0.393113  1
  Mg  Mg6  1  0.393113  0.001621  0.689109  1
  Mg  Mg7  1  0.614026  0.614026  0.278619  1
  Mg  Mg8  1  0.995919  0.995919  0.653326  1
  Mg  Mg9  1  0.689109  0.393113  0.001621  1
  Mg  Mg10  1  0.316344  0.718472  0.316344  1
  Mg  Mg11  1  0.316344  0.316344  0.718472  1
  Mg  Mg12  1  0.689109  0.001621  0.393113  1
  Mg  Mg13  1  0.995919  0.653326  0.995919  1
  Mg  Mg14  1  0.614026  0.278619  0.614026  1
  Mg  Mg15  1  0.393113  0.689109  0.001621  1
  Mg  Mg16  1  0.001621  0.393113  0.689109  1
  Al  Al17  1  0.172284  0.810696  0.810696  1
  Al  Al18  1  0.811285  0.628225  0.628225  1
  Al  Al19  1  0.999839  0.364776  0.185715  1
  Al  Al20  1  0.628225  0.811285  0.628225  1
  Al  Al21  1  0.364776  0.185715  0.999839  1
  Al  Al22  1  0.810696  0.172284  0.810696  1
  Al  Al23  1  0.185715  0.364776  0.999839  1
  Al  Al24  1  0.185715  0.999839  0.364776  1
  Al  Al25  1  0.810696  0.810696  0.172284  1
  Al  Al26  1  0.364776  0.999839  0.185715  1
  Al  Al27  1  0.628225  0.628225  0.811285  1
  Al  Al28  1  0.999839  0.185715  0.364776  1
