# generated using pymatgen
data_AgAs3H2O9
_symmetry_space_group_name_H-M   'P 1'
_cell_length_a   7.33788331
_cell_length_b   7.80116900
_cell_length_c   8.05323738
_cell_angle_alpha   111.11043809
_cell_angle_beta   106.54837848
_cell_angle_gamma   105.98918155
_symmetry_Int_Tables_number   1
_chemical_formula_structural   AgAs3H2O9
_chemical_formula_sum   'Ag2 As6 H4 O18'
_cell_volume   373.59890874
_cell_formula_units_Z   2
loop_
 _symmetry_equiv_pos_site_id
 _symmetry_equiv_pos_as_xyz
  1  'x, y, z'
loop_
 _atom_site_type_symbol
 _atom_site_label
 _atom_site_symmetry_multiplicity
 _atom_site_fract_x
 _atom_site_fract_y
 _atom_site_fract_z
 _atom_site_occupancy
  Ag  Ag0  1  0.296655  0.829124  0.041881  1
  Ag  Ag1  1  0.703345  0.170876  0.958119  1
  As  As2  1  0.371640  0.352336  0.165718  1
  As  As3  1  0.184603  0.834030  0.456891  1
  As  As4  1  0.156064  0.436655  0.476163  1
  As  As5  1  0.843936  0.563345  0.523837  1
  As  As6  1  0.815397  0.165970  0.543109  1
  As  As7  1  0.628360  0.647664  0.834282  1
  H  H8  1  0.868645  0.634990  0.077813  1
  H  H9  1  0.636441  0.812398  0.390625  1
  H  H10  1  0.363559  0.187602  0.609375  1
  H  H11  1  0.131355  0.365010  0.922187  1
  O  O12  1  0.281243  0.467907  0.032271  1
  O  O13  1  0.398386  0.146363  0.039258  1
  O  O14  1  0.093651  0.790698  0.222628  1
  O  O15  1  0.190036  0.285723  0.260567  1
  O  O16  1  0.913422  0.436653  0.319718  1
  O  O17  1  0.607569  0.561903  0.354348  1
  O  O18  1  0.610263  0.926685  0.377085  1
  O  O19  1  0.004981  0.180217  0.448624  1
  O  O20  1  0.681192  0.310729  0.494618  1
  O  O21  1  0.318808  0.689271  0.505382  1
  O  O22  1  0.995019  0.819783  0.551376  1
  O  O23  1  0.389737  0.073315  0.622915  1
  O  O24  1  0.392431  0.438097  0.645652  1
  O  O25  1  0.086578  0.563347  0.680282  1
  O  O26  1  0.809964  0.714277  0.739433  1
  O  O27  1  0.906349  0.209302  0.777372  1
  O  O28  1  0.601614  0.853637  0.960742  1
  O  O29  1  0.718757  0.532093  0.967729  1
