# generated using pymatgen
data_CsNaF3
_symmetry_space_group_name_H-M   'P 1'
_cell_length_a   4.59345789
_cell_length_b   4.59345789
_cell_length_c   4.56773697
_cell_angle_alpha   86.45145447
_cell_angle_beta   93.54854553
_cell_angle_gamma   92.40218277
_symmetry_Int_Tables_number   1
_chemical_formula_structural   CsNaF3
_chemical_formula_sum   'Cs1 Na1 F3'
_cell_volume   95.93919006
_cell_formula_units_Z   1
loop_
 _symmetry_equiv_pos_site_id
 _symmetry_equiv_pos_as_xyz
  1  'x, y, z'
loop_
 _atom_site_type_symbol
 _atom_site_label
 _atom_site_symmetry_multiplicity
 _atom_site_fract_x
 _atom_site_fract_y
 _atom_site_fract_z
 _atom_site_occupancy
  Cs  Cs0  1  0.002327  0.997673  0.990542  1
  Na  Na1  1  0.502528  0.497472  0.483973  1
  F  F2  1  0.000697  0.494755  0.487212  1
  F  F3  1  0.490200  0.509800  0.980664  1
  F  F4  1  0.505245  0.999303  0.487212  1
