# generated using pymatgen
data_Sr(AuO2)2
_symmetry_space_group_name_H-M   'P 1'
_cell_length_a   6.82409437
_cell_length_b   6.82409437
_cell_length_c   6.82409437
_cell_angle_alpha   124.91679409
_cell_angle_beta   124.91679409
_cell_angle_gamma   81.67589515
_symmetry_Int_Tables_number   1
_chemical_formula_structural   Sr(AuO2)2
_chemical_formula_sum   'Sr2 Au4 O8'
_cell_volume   205.61809371
_cell_formula_units_Z   2
loop_
 _symmetry_equiv_pos_site_id
 _symmetry_equiv_pos_as_xyz
  1  'x, y, z'
loop_
 _atom_site_type_symbol
 _atom_site_label
 _atom_site_symmetry_multiplicity
 _atom_site_fract_x
 _atom_site_fract_y
 _atom_site_fract_z
 _atom_site_occupancy
  Sr  Sr0  1  0.250000  0.750000  0.500000  1
  Sr  Sr1  1  0.500000  0.500000  0.000000  1
  Au  Au2  1  0.875000  0.125000  0.250000  1
  Au  Au3  1  0.375000  0.125000  0.250000  1
  Au  Au4  1  0.875000  0.625000  0.750000  1
  Au  Au5  1  0.875000  0.125000  0.750000  1
  O  O6  1  0.079854  0.451405  0.935116  1
  O  O7  1  0.201405  0.766290  0.871551  1
  O  O8  1  0.894739  0.329854  0.128449  1
  O  O9  1  0.516290  0.144739  0.064884  1
  O  O10  1  0.670146  0.798595  0.564884  1
  O  O11  1  0.548595  0.483710  0.628449  1
  O  O12  1  0.233710  0.105261  0.435116  1
  O  O13  1  0.855261  0.920146  0.371551  1
