# generated using pymatgen
data_Er2FeC4
_symmetry_space_group_name_H-M   'P 1'
_cell_length_a   6.53495051
_cell_length_b   6.53495051
_cell_length_c   6.53495051
_cell_angle_alpha   135.06813390
_cell_angle_beta   110.39285416
_cell_angle_gamma   86.76667078
_symmetry_Int_Tables_number   1
_chemical_formula_structural   Er2FeC4
_chemical_formula_sum   'Er4 Fe2 C8'
_cell_volume   176.95362412
_cell_formula_units_Z   2
loop_
 _symmetry_equiv_pos_site_id
 _symmetry_equiv_pos_as_xyz
  1  'x, y, z'
loop_
 _atom_site_type_symbol
 _atom_site_label
 _atom_site_symmetry_multiplicity
 _atom_site_fract_x
 _atom_site_fract_y
 _atom_site_fract_z
 _atom_site_occupancy
  Er  Er0  1  0.489053  0.144610  0.344442  1
  Er  Er1  1  0.510947  0.855390  0.655558  1
  Er  Er2  1  0.199832  0.355390  0.844442  1
  Er  Er3  1  0.800168  0.644610  0.155558  1
  Fe  Fe4  1  0.000000  0.250000  0.250000  1
  Fe  Fe5  1  0.000000  0.750000  0.750000  1
  C  C6  1  0.755789  0.421950  0.333840  1
  C  C7  1  0.244211  0.578050  0.666160  1
  C  C8  1  0.911890  0.078050  0.833840  1
  C  C9  1  0.088110  0.921950  0.166160  1
  C  C10  1  0.531914  0.370616  0.161299  1
  C  C11  1  0.468086  0.629384  0.838701  1
  C  C12  1  0.209317  0.870616  0.338701  1
  C  C13  1  0.790683  0.129384  0.661299  1
