# generated using pymatgen
data_K2NbCuSe4
_symmetry_space_group_name_H-M   'P 1'
_cell_length_a   14.00269885
_cell_length_b   12.52731032
_cell_length_c   7.47172674
_cell_angle_alpha   84.88663210
_cell_angle_beta   63.00864762
_cell_angle_gamma   32.10472027
_symmetry_Int_Tables_number   1
_chemical_formula_structural   K2NbCuSe4
_chemical_formula_sum   'K4 Nb2 Cu2 Se8'
_cell_volume   485.22729309
_cell_formula_units_Z   2
loop_
 _symmetry_equiv_pos_site_id
 _symmetry_equiv_pos_as_xyz
  1  'x, y, z'
loop_
 _atom_site_type_symbol
 _atom_site_label
 _atom_site_symmetry_multiplicity
 _atom_site_fract_x
 _atom_site_fract_y
 _atom_site_fract_z
 _atom_site_occupancy
  K  K0  1  0.179620  0.179620  0.820380  1
  K  K1  1  0.820380  0.820380  0.179620  1
  K  K2  1  0.070380  0.070380  0.429620  1
  K  K3  1  0.429620  0.429620  0.070380  1
  Nb  Nb4  1  0.000000  0.000000  0.000000  1
  Nb  Nb5  1  0.250000  0.250000  0.250000  1
  Cu  Cu6  1  0.750000  0.750000  0.750000  1
  Cu  Cu7  1  0.500000  0.500000  0.500000  1
  Se  Se8  1  0.845336  0.540804  0.449875  1
  Se  Se9  1  0.540804  0.845336  0.163985  1
  Se  Se10  1  0.404664  0.709196  0.800125  1
  Se  Se11  1  0.086015  0.800125  0.709196  1
  Se  Se12  1  0.800125  0.086015  0.404664  1
  Se  Se13  1  0.709196  0.404664  0.086015  1
  Se  Se14  1  0.449875  0.163985  0.845336  1
  Se  Se15  1  0.163985  0.449875  0.540804  1
