# generated using pymatgen
data_AgO2F
_symmetry_space_group_name_H-M   'P 1'
_cell_length_a   5.35588611
_cell_length_b   5.35588611
_cell_length_c   4.40860028
_cell_angle_alpha   90.00000000
_cell_angle_beta   90.00000000
_cell_angle_gamma   97.33265568
_symmetry_Int_Tables_number   1
_chemical_formula_structural   AgO2F
_chemical_formula_sum   'Ag2 O4 F2'
_cell_volume   125.42874224
_cell_formula_units_Z   2
loop_
 _symmetry_equiv_pos_site_id
 _symmetry_equiv_pos_as_xyz
  1  'x, y, z'
loop_
 _atom_site_type_symbol
 _atom_site_label
 _atom_site_symmetry_multiplicity
 _atom_site_fract_x
 _atom_site_fract_y
 _atom_site_fract_z
 _atom_site_occupancy
  Ag  Ag0  1  0.281752  0.281752  0.500000  1
  Ag  Ag1  1  0.718248  0.718248  1.000000  1
  O  O2  1  0.207950  0.968767  0.788514  1
  O  O3  1  0.792050  0.031233  0.288514  1
  O  O4  1  0.031233  0.792050  0.711486  1
  O  O5  1  0.968767  0.207950  0.211486  1
  F  F6  1  0.378024  0.621976  0.250000  1
  F  F7  1  0.621976  0.378024  0.750000  1
