# generated using pymatgen
data_Rb3Os
_symmetry_space_group_name_H-M   'P 1'
_cell_length_a   6.33811528
_cell_length_b   6.33811528
_cell_length_c   6.33811528
_cell_angle_alpha   123.20920004
_cell_angle_beta   123.20920004
_cell_angle_gamma   84.52593630
_symmetry_Int_Tables_number   1
_chemical_formula_structural   Rb3Os
_chemical_formula_sum   'Rb3 Os1'
_cell_volume   170.45499093
_cell_formula_units_Z   1
loop_
 _symmetry_equiv_pos_site_id
 _symmetry_equiv_pos_as_xyz
  1  'x, y, z'
loop_
 _atom_site_type_symbol
 _atom_site_label
 _atom_site_symmetry_multiplicity
 _atom_site_fract_x
 _atom_site_fract_y
 _atom_site_fract_z
 _atom_site_occupancy
  Rb  Rb0  1  0.250000  0.750000  0.500000  1
  Rb  Rb1  1  0.750000  0.250000  0.500000  1
  Rb  Rb2  1  0.500000  0.500000  0.000000  1
  Os  Os3  1  0.000000  0.000000  0.000000  1
