# generated using pymatgen
data_KV5Se8
_symmetry_space_group_name_H-M   'P 1'
_cell_length_a   9.53641132
_cell_length_b   9.53641132
_cell_length_c   8.97674133
_cell_angle_alpha   76.07389571
_cell_angle_beta   103.92610429
_cell_angle_gamma   157.61686989
_symmetry_Int_Tables_number   1
_chemical_formula_structural   KV5Se8
_chemical_formula_sum   'K1 V5 Se8'
_cell_volume   301.37249075
_cell_formula_units_Z   1
loop_
 _symmetry_equiv_pos_site_id
 _symmetry_equiv_pos_as_xyz
  1  'x, y, z'
loop_
 _atom_site_type_symbol
 _atom_site_label
 _atom_site_symmetry_multiplicity
 _atom_site_fract_x
 _atom_site_fract_y
 _atom_site_fract_z
 _atom_site_occupancy
  K  K0  1  0.500000  0.500000  0.000000  1
  V  V1  1  0.000000  0.000000  0.500000  1
  V  V2  1  0.650856  0.349144  0.489588  1
  V  V3  1  0.712217  0.287783  0.848818  1
  V  V4  1  0.287783  0.712217  0.151182  1
  V  V5  1  0.349144  0.650856  0.510412  1
  Se  Se6  1  0.572086  0.427914  0.672649  1
  Se  Se7  1  0.087015  0.912985  0.320570  1
  Se  Se8  1  0.162054  0.837946  0.988919  1
  Se  Se9  1  0.239635  0.760365  0.656564  1
  Se  Se10  1  0.760365  0.239635  0.343436  1
  Se  Se11  1  0.837946  0.162054  0.011081  1
  Se  Se12  1  0.912985  0.087015  0.679430  1
  Se  Se13  1  0.427914  0.572086  0.327351  1
