# generated using pymatgen
data_RbPbCl3
_symmetry_space_group_name_H-M   'P 1'
_cell_length_a   5.71715460
_cell_length_b   5.71715460
_cell_length_c   5.71394593
_cell_angle_alpha   89.90838806
_cell_angle_beta   90.09161194
_cell_angle_gamma   89.92650677
_symmetry_Int_Tables_number   1
_chemical_formula_structural   RbPbCl3
_chemical_formula_sum   'Rb1 Pb1 Cl3'
_cell_volume   186.76458597
_cell_formula_units_Z   1
loop_
 _symmetry_equiv_pos_site_id
 _symmetry_equiv_pos_as_xyz
  1  'x, y, z'
loop_
 _atom_site_type_symbol
 _atom_site_label
 _atom_site_symmetry_multiplicity
 _atom_site_fract_x
 _atom_site_fract_y
 _atom_site_fract_z
 _atom_site_occupancy
  Rb  Rb0  1  0.005214  0.994786  0.001127  1
  Pb  Pb1  1  0.504107  0.495893  0.514267  1
  Cl  Cl2  1  0.505607  0.996199  0.516531  1
  Cl  Cl3  1  0.492093  0.507907  0.015158  1
  Cl  Cl4  1  0.003801  0.494393  0.516531  1
