# generated using pymatgen
data_Cs2InBiF6
_symmetry_space_group_name_H-M   'P 1'
_cell_length_a   6.97447608
_cell_length_b   6.97447608
_cell_length_c   6.97447608
_cell_angle_alpha   60.00000000
_cell_angle_beta   60.00000000
_cell_angle_gamma   60.00000000
_symmetry_Int_Tables_number   1
_chemical_formula_structural   Cs2InBiF6
_chemical_formula_sum   'Cs2 In1 Bi1 F6'
_cell_volume   239.89421194
_cell_formula_units_Z   1
loop_
 _symmetry_equiv_pos_site_id
 _symmetry_equiv_pos_as_xyz
  1  'x, y, z'
loop_
 _atom_site_type_symbol
 _atom_site_label
 _atom_site_symmetry_multiplicity
 _atom_site_fract_x
 _atom_site_fract_y
 _atom_site_fract_z
 _atom_site_occupancy
  Cs  Cs0  1  0.750000  0.750000  0.750000  1
  Cs  Cs1  1  0.250000  0.250000  0.250000  1
  In  In2  1  0.500000  0.500000  0.500000  1
  Bi  Bi3  1  0.000000  0.000000  0.000000  1
  F  F4  1  0.231735  0.231735  0.768265  1
  F  F5  1  0.231735  0.768265  0.231735  1
  F  F6  1  0.768265  0.768265  0.231735  1
  F  F7  1  0.768265  0.231735  0.231735  1
  F  F8  1  0.231735  0.768265  0.768265  1
  F  F9  1  0.768265  0.231735  0.768265  1
