# generated using pymatgen
data_K3Ta3(BO6)2
_symmetry_space_group_name_H-M   'P 1'
_cell_length_a   8.88869616
_cell_length_b   8.88869616
_cell_length_c   3.94721139
_cell_angle_alpha   90.00000000
_cell_angle_beta   90.00000000
_cell_angle_gamma   120.00000000
_symmetry_Int_Tables_number   1
_chemical_formula_structural   K3Ta3(BO6)2
_chemical_formula_sum   'K3 Ta3 B2 O12'
_cell_volume   270.08293169
_cell_formula_units_Z   1
loop_
 _symmetry_equiv_pos_site_id
 _symmetry_equiv_pos_as_xyz
  1  'x, y, z'
loop_
 _atom_site_type_symbol
 _atom_site_label
 _atom_site_symmetry_multiplicity
 _atom_site_fract_x
 _atom_site_fract_y
 _atom_site_fract_z
 _atom_site_occupancy
  K  K0  1  0.403867  0.000000  0.500000  1
  K  K1  1  0.596133  0.596133  0.500000  1
  K  K2  1  0.000000  0.403867  0.500000  1
  Ta  Ta3  1  0.753379  0.000000  0.000000  1
  Ta  Ta4  1  0.246621  0.246621  0.000000  1
  Ta  Ta5  1  0.000000  0.753379  0.000000  1
  B  B6  1  0.333333  0.666667  0.000000  1
  B  B7  1  0.666667  0.333333  0.000000  1
  O  O8  1  0.811443  0.496779  0.000000  1
  O  O9  1  0.496779  0.811443  0.000000  1
  O  O10  1  0.188557  0.685337  0.000000  1
  O  O11  1  0.314663  0.503221  0.000000  1
  O  O12  1  0.503221  0.314663  0.000000  1
  O  O13  1  0.685337  0.188557  0.000000  1
  O  O14  1  0.736943  0.000000  0.500000  1
  O  O15  1  0.263057  0.263057  0.500000  1
  O  O16  1  0.000000  0.736943  0.500000  1
  O  O17  1  0.179006  0.000000  0.000000  1
  O  O18  1  0.820994  0.820994  0.000000  1
  O  O19  1  0.000000  0.179006  0.000000  1
