# generated using pymatgen
data_Re3Mo
_symmetry_space_group_name_H-M   'P 1'
_cell_length_a   5.58998116
_cell_length_b   5.58998116
_cell_length_c   4.54956617
_cell_angle_alpha   90.00000000
_cell_angle_beta   90.00000000
_cell_angle_gamma   120.00000000
_symmetry_Int_Tables_number   1
_chemical_formula_structural   Re3Mo
_chemical_formula_sum   'Re6 Mo2'
_cell_volume   123.11793006
_cell_formula_units_Z   2
loop_
 _symmetry_equiv_pos_site_id
 _symmetry_equiv_pos_as_xyz
  1  'x, y, z'
loop_
 _atom_site_type_symbol
 _atom_site_label
 _atom_site_symmetry_multiplicity
 _atom_site_fract_x
 _atom_site_fract_y
 _atom_site_fract_z
 _atom_site_occupancy
  Re  Re0  1  0.833969  0.166031  0.750000  1
  Re  Re1  1  0.332063  0.166031  0.750000  1
  Re  Re2  1  0.833969  0.667937  0.750000  1
  Re  Re3  1  0.166031  0.833969  0.250000  1
  Re  Re4  1  0.667937  0.833969  0.250000  1
  Re  Re5  1  0.166031  0.332063  0.250000  1
  Mo  Mo6  1  0.666667  0.333333  0.250000  1
  Mo  Mo7  1  0.333333  0.666667  0.750000  1
