# generated using pymatgen
data_Nb4Ag2O11
_symmetry_space_group_name_H-M   'P 1'
_cell_length_a   13.24308648
_cell_length_b   13.24308648
_cell_length_c   13.24308648
_cell_angle_alpha   27.34980165
_cell_angle_beta   27.34980165
_cell_angle_gamma   27.34980165
_symmetry_Int_Tables_number   1
_chemical_formula_structural   Nb4Ag2O11
_chemical_formula_sum   'Nb8 Ag4 O22'
_cell_volume   432.59596960
_cell_formula_units_Z   2
loop_
 _symmetry_equiv_pos_site_id
 _symmetry_equiv_pos_as_xyz
  1  'x, y, z'
loop_
 _atom_site_type_symbol
 _atom_site_label
 _atom_site_symmetry_multiplicity
 _atom_site_fract_x
 _atom_site_fract_y
 _atom_site_fract_z
 _atom_site_occupancy
  Nb  Nb0  1  0.996063  0.996063  0.996063  1
  Nb  Nb1  1  0.496063  0.496063  0.496063  1
  Nb  Nb2  1  0.114928  0.752609  0.378016  1
  Nb  Nb3  1  0.378016  0.114928  0.752609  1
  Nb  Nb4  1  0.752609  0.378016  0.114928  1
  Nb  Nb5  1  0.878016  0.252609  0.614928  1
  Nb  Nb6  1  0.252609  0.614928  0.878016  1
  Nb  Nb7  1  0.614928  0.878016  0.252609  1
  Ag  Ag8  1  0.671383  0.671383  0.671383  1
  Ag  Ag9  1  0.171383  0.171383  0.171383  1
  Ag  Ag10  1  0.826091  0.826091  0.826091  1
  Ag  Ag11  1  0.326091  0.326091  0.326091  1
  O  O12  1  0.052604  0.764043  0.283012  1
  O  O13  1  0.283012  0.052604  0.764043  1
  O  O14  1  0.764043  0.283012  0.052604  1
  O  O15  1  0.783012  0.264043  0.552604  1
  O  O16  1  0.264043  0.552604  0.783012  1
  O  O17  1  0.552604  0.783012  0.264043  1
  O  O18  1  0.907020  0.907020  0.907020  1
  O  O19  1  0.407020  0.407020  0.407020  1
  O  O20  1  0.596839  0.596839  0.596839  1
  O  O21  1  0.096839  0.096839  0.096839  1
  O  O22  1  0.497417  0.748824  0.008475  1
  O  O23  1  0.008475  0.497417  0.748824  1
  O  O24  1  0.748824  0.008475  0.497417  1
  O  O25  1  0.508475  0.248824  0.997417  1
  O  O26  1  0.248824  0.997417  0.508475  1
  O  O27  1  0.997417  0.508475  0.248824  1
  O  O28  1  0.453421  0.215060  0.744896  1
  O  O29  1  0.744896  0.453421  0.215060  1
  O  O30  1  0.215060  0.744896  0.453421  1
  O  O31  1  0.244896  0.715060  0.953421  1
  O  O32  1  0.715060  0.953421  0.244896  1
  O  O33  1  0.953421  0.244896  0.715060  1
