# generated using pymatgen
data_Al2O3
_symmetry_space_group_name_H-M   'P 1'
_cell_length_a   4.98827629
_cell_length_b   4.98827629
_cell_length_c   14.53365062
_cell_angle_alpha   90.00000000
_cell_angle_beta   90.00000000
_cell_angle_gamma   120.00000000
_symmetry_Int_Tables_number   1
_chemical_formula_structural   Al2O3
_chemical_formula_sum   'Al6 O9'
_cell_volume   313.18889050
_cell_formula_units_Z   3
loop_
 _symmetry_equiv_pos_site_id
 _symmetry_equiv_pos_as_xyz
  1  'x, y, z'
loop_
 _atom_site_type_symbol
 _atom_site_label
 _atom_site_symmetry_multiplicity
 _atom_site_fract_x
 _atom_site_fract_y
 _atom_site_fract_z
 _atom_site_occupancy
  Al  Al0  1  0.666667  0.333333  0.119341  1
  Al  Al1  1  0.000000  0.000000  0.092630  1
  Al  Al2  1  0.333333  0.666667  0.082240  1
  Al  Al3  1  0.666667  0.333333  0.917760  1
  Al  Al4  1  0.000000  0.000000  0.907370  1
  Al  Al5  1  0.333333  0.666667  0.880659  1
  O  O6  1  0.013288  0.674900  0.143958  1
  O  O7  1  0.325100  0.338388  0.143958  1
  O  O8  1  0.661612  0.986712  0.143958  1
  O  O9  1  0.324923  0.000000  0.000000  1
  O  O10  1  0.000000  0.324923  0.000000  1
  O  O11  1  0.675077  0.675077  0.000000  1
  O  O12  1  0.338388  0.325100  0.856042  1
  O  O13  1  0.674900  0.013288  0.856042  1
  O  O14  1  0.986712  0.661612  0.856042  1
