# generated using pymatgen
data_K3Ir
_symmetry_space_group_name_H-M   'P 1'
_cell_length_a   7.60246684
_cell_length_b   7.60246684
_cell_length_c   5.54153827
_cell_angle_alpha   90.00000000
_cell_angle_beta   90.00000000
_cell_angle_gamma   120.00000000
_symmetry_Int_Tables_number   1
_chemical_formula_structural   K3Ir
_chemical_formula_sum   'K6 Ir2'
_cell_volume   277.37673863
_cell_formula_units_Z   2
loop_
 _symmetry_equiv_pos_site_id
 _symmetry_equiv_pos_as_xyz
  1  'x, y, z'
loop_
 _atom_site_type_symbol
 _atom_site_label
 _atom_site_symmetry_multiplicity
 _atom_site_fract_x
 _atom_site_fract_y
 _atom_site_fract_z
 _atom_site_occupancy
  K  K0  1  0.186917  0.373835  0.250000  1
  K  K1  1  0.626165  0.813083  0.250000  1
  K  K2  1  0.186917  0.813083  0.250000  1
  K  K3  1  0.813083  0.626165  0.750000  1
  K  K4  1  0.373835  0.186917  0.750000  1
  K  K5  1  0.813083  0.186917  0.750000  1
  Ir  Ir6  1  0.333333  0.666667  0.750000  1
  Ir  Ir7  1  0.666667  0.333333  0.250000  1
