# generated using pymatgen
data_Tm2Ni12As7
_symmetry_space_group_name_H-M   'P 1'
_cell_length_a   9.35234695
_cell_length_b   9.35234695
_cell_length_c   3.80467708
_cell_angle_alpha   90.00000000
_cell_angle_beta   90.00000000
_cell_angle_gamma   120.00000000
_symmetry_Int_Tables_number   1
_chemical_formula_structural   Tm2Ni12As7
_chemical_formula_sum   'Tm2 Ni12 As7'
_cell_volume   288.19713127
_cell_formula_units_Z   1
loop_
 _symmetry_equiv_pos_site_id
 _symmetry_equiv_pos_as_xyz
  1  'x, y, z'
loop_
 _atom_site_type_symbol
 _atom_site_label
 _atom_site_symmetry_multiplicity
 _atom_site_fract_x
 _atom_site_fract_y
 _atom_site_fract_z
 _atom_site_occupancy
  Tm  Tm0  1  0.000000  0.000000  0.000000  1
  Tm  Tm1  1  0.333333  0.666667  0.500000  1
  Ni  Ni2  1  0.818667  0.613913  0.000000  1
  Ni  Ni3  1  0.386087  0.204755  0.000000  1
  Ni  Ni4  1  0.795245  0.181333  0.000000  1
  Ni  Ni5  1  0.044698  0.759038  0.500000  1
  Ni  Ni6  1  0.240962  0.285660  0.500000  1
  Ni  Ni7  1  0.714340  0.955302  0.500000  1
  Ni  Ni8  1  0.107428  0.389782  0.000000  1
  Ni  Ni9  1  0.610218  0.717646  0.000000  1
  Ni  Ni10  1  0.282354  0.892572  0.000000  1
  Ni  Ni11  1  0.879455  0.428898  0.500000  1
  Ni  Ni12  1  0.571102  0.450557  0.500000  1
  Ni  Ni13  1  0.549443  0.120545  0.500000  1
  As  As14  1  0.666667  0.333333  0.000000  1
  As  As15  1  0.778868  0.743410  0.500000  1
  As  As16  1  0.256590  0.035458  0.500000  1
  As  As17  1  0.964542  0.221132  0.500000  1
  As  As18  1  0.070761  0.617094  0.000000  1
  As  As19  1  0.382906  0.453667  0.000000  1
  As  As20  1  0.546333  0.929239  0.000000  1
