# generated using pymatgen
data_Zr6FeTe2
_symmetry_space_group_name_H-M   'P 1'
_cell_length_a   7.84791633
_cell_length_b   7.84791633
_cell_length_c   3.60393467
_cell_angle_alpha   90.00000000
_cell_angle_beta   90.00000000
_cell_angle_gamma   120.00000000
_symmetry_Int_Tables_number   1
_chemical_formula_structural   Zr6FeTe2
_chemical_formula_sum   'Zr6 Fe1 Te2'
_cell_volume   192.22783296
_cell_formula_units_Z   1
loop_
 _symmetry_equiv_pos_site_id
 _symmetry_equiv_pos_as_xyz
  1  'x, y, z'
loop_
 _atom_site_type_symbol
 _atom_site_label
 _atom_site_symmetry_multiplicity
 _atom_site_fract_x
 _atom_site_fract_y
 _atom_site_fract_z
 _atom_site_occupancy
  Zr  Zr0  1  0.760083  0.760083  0.500000  1
  Zr  Zr1  1  0.000000  0.597513  0.000000  1
  Zr  Zr2  1  0.239917  0.000000  0.500000  1
  Zr  Zr3  1  0.000000  0.239917  0.500000  1
  Zr  Zr4  1  0.597513  0.000000  0.000000  1
  Zr  Zr5  1  0.402487  0.402487  0.000000  1
  Fe  Fe6  1  0.000000  0.000000  0.000000  1
  Te  Te7  1  0.666667  0.333333  0.500000  1
  Te  Te8  1  0.333333  0.666667  0.500000  1
