# generated using pymatgen
data_NdB2HF10
_symmetry_space_group_name_H-M   'P 1'
_cell_length_a   7.07791171
_cell_length_b   5.88628133
_cell_length_c   8.81546700
_cell_angle_alpha   90.00000000
_cell_angle_beta   112.54300669
_cell_angle_gamma   90.00000000
_symmetry_Int_Tables_number   1
_chemical_formula_structural   NdB2HF10
_chemical_formula_sum   'Nd2 B4 H2 F20'
_cell_volume   339.21234997
_cell_formula_units_Z   2
loop_
 _symmetry_equiv_pos_site_id
 _symmetry_equiv_pos_as_xyz
  1  'x, y, z'
loop_
 _atom_site_type_symbol
 _atom_site_label
 _atom_site_symmetry_multiplicity
 _atom_site_fract_x
 _atom_site_fract_y
 _atom_site_fract_z
 _atom_site_occupancy
  Nd  Nd0  1  0.267371  0.750000  0.843515  1
  Nd  Nd1  1  0.732629  0.250000  0.156485  1
  B  B2  1  0.248254  0.250000  0.549439  1
  B  B3  1  0.913941  0.250000  0.805084  1
  B  B4  1  0.086059  0.750000  0.194916  1
  B  B5  1  0.751746  0.750000  0.450561  1
  H  H6  1  0.572023  0.750000  0.652737  1
  H  H7  1  0.427977  0.250000  0.347263  1
  F  F8  1  0.428114  0.250000  0.515075  1
  F  F9  1  0.923420  0.750000  0.600278  1
  F  F10  1  0.834189  0.250000  0.636410  1
  F  F11  1  0.247111  0.445493  0.642980  1
  F  F12  1  0.247111  0.054507  0.642980  1
  F  F13  1  0.572057  0.750000  0.763496  1
  F  F14  1  0.760283  0.250000  0.872477  1
  F  F15  1  0.040878  0.447177  0.866359  1
  F  F16  1  0.040878  0.052823  0.866359  1
  F  F17  1  0.500000  0.000000  0.000000  1
  F  F18  1  0.500000  0.500000  0.000000  1
  F  F19  1  0.959122  0.947177  0.133641  1
  F  F20  1  0.959122  0.552823  0.133641  1
  F  F21  1  0.239717  0.750000  0.127523  1
  F  F22  1  0.427943  0.250000  0.236504  1
  F  F23  1  0.752889  0.945493  0.357020  1
  F  F24  1  0.752889  0.554507  0.357020  1
  F  F25  1  0.165811  0.750000  0.363590  1
  F  F26  1  0.076580  0.250000  0.399722  1
  F  F27  1  0.571886  0.750000  0.484925  1
