# generated using pymatgen
data_YbB4Ru
_symmetry_space_group_name_H-M   'P 1'
_cell_length_a   3.53222280
_cell_length_b   5.94774793
_cell_length_c   11.52003897
_cell_angle_alpha   90.00000000
_cell_angle_beta   90.00000000
_cell_angle_gamma   90.00000000
_symmetry_Int_Tables_number   1
_chemical_formula_structural   YbB4Ru
_chemical_formula_sum   'Yb4 B16 Ru4'
_cell_volume   242.02185887
_cell_formula_units_Z   4
loop_
 _symmetry_equiv_pos_site_id
 _symmetry_equiv_pos_as_xyz
  1  'x, y, z'
loop_
 _atom_site_type_symbol
 _atom_site_label
 _atom_site_symmetry_multiplicity
 _atom_site_fract_x
 _atom_site_fract_y
 _atom_site_fract_z
 _atom_site_occupancy
  Yb  Yb0  1  0.500000  0.629875  0.150487  1
  Yb  Yb1  1  0.500000  0.370125  0.849513  1
  Yb  Yb2  1  0.500000  0.129875  0.349513  1
  Yb  Yb3  1  0.500000  0.870125  0.650487  1
  B  B4  1  0.000000  0.976450  0.192201  1
  B  B5  1  0.000000  0.023550  0.807799  1
  B  B6  1  0.000000  0.476450  0.307799  1
  B  B7  1  0.000000  0.523550  0.692201  1
  B  B8  1  0.000000  0.786974  0.314997  1
  B  B9  1  0.000000  0.213026  0.685003  1
  B  B10  1  0.000000  0.286974  0.185003  1
  B  B11  1  0.000000  0.713026  0.814997  1
  B  B12  1  0.000000  0.864837  0.468864  1
  B  B13  1  0.000000  0.135163  0.531136  1
  B  B14  1  0.000000  0.364837  0.031136  1
  B  B15  1  0.000000  0.635163  0.968864  1
  B  B16  1  0.000000  0.887321  0.047260  1
  B  B17  1  0.000000  0.112679  0.952740  1
  B  B18  1  0.000000  0.387321  0.452740  1
  B  B19  1  0.000000  0.612679  0.547260  1
  Ru  Ru20  1  0.500000  0.635489  0.412493  1
  Ru  Ru21  1  0.500000  0.364511  0.587507  1
  Ru  Ru22  1  0.500000  0.135489  0.087507  1
  Ru  Ru23  1  0.500000  0.864511  0.912493  1
