# generated using pymatgen
data_NdMnSi2
_symmetry_space_group_name_H-M   'P 1'
_cell_length_a   9.03057254
_cell_length_b   9.03057254
_cell_length_c   3.98609400
_cell_angle_alpha   90.00000000
_cell_angle_beta   90.00000000
_cell_angle_gamma   153.92520918
_symmetry_Int_Tables_number   1
_chemical_formula_structural   NdMnSi2
_chemical_formula_sum   'Nd2 Mn2 Si4'
_cell_volume   142.88297153
_cell_formula_units_Z   2
loop_
 _symmetry_equiv_pos_site_id
 _symmetry_equiv_pos_as_xyz
  1  'x, y, z'
loop_
 _atom_site_type_symbol
 _atom_site_label
 _atom_site_symmetry_multiplicity
 _atom_site_fract_x
 _atom_site_fract_y
 _atom_site_fract_z
 _atom_site_occupancy
  Nd  Nd0  1  0.101271  0.898729  0.250000  1
  Nd  Nd1  1  0.898729  0.101271  0.750000  1
  Mn  Mn2  1  0.249770  0.750230  0.750000  1
  Mn  Mn3  1  0.750230  0.249770  0.250000  1
  Si  Si4  1  0.322172  0.677828  0.250000  1
  Si  Si5  1  0.677828  0.322172  0.750000  1
  Si  Si6  1  0.536536  0.463465  0.750000  1
  Si  Si7  1  0.463465  0.536535  0.250000  1
