# generated using pymatgen
data_Ba6In2NF
_symmetry_space_group_name_H-M   'P 1'
_cell_length_a   7.97057766
_cell_length_b   7.97057766
_cell_length_c   7.97057766
_cell_angle_alpha   60.00000000
_cell_angle_beta   60.00000000
_cell_angle_gamma   60.00000000
_symmetry_Int_Tables_number   1
_chemical_formula_structural   Ba6In2NF
_chemical_formula_sum   'Ba6 In2 N1 F1'
_cell_volume   358.05883496
_cell_formula_units_Z   1
loop_
 _symmetry_equiv_pos_site_id
 _symmetry_equiv_pos_as_xyz
  1  'x, y, z'
loop_
 _atom_site_type_symbol
 _atom_site_label
 _atom_site_symmetry_multiplicity
 _atom_site_fract_x
 _atom_site_fract_y
 _atom_site_fract_z
 _atom_site_occupancy
  Ba  Ba0  1  0.241696  0.758304  0.758304  1
  Ba  Ba1  1  0.241696  0.241696  0.758304  1
  Ba  Ba2  1  0.758304  0.758304  0.241696  1
  Ba  Ba3  1  0.241696  0.758304  0.241696  1
  Ba  Ba4  1  0.758304  0.241696  0.758304  1
  Ba  Ba5  1  0.758304  0.241696  0.241696  1
  In  In6  1  0.750000  0.750000  0.750000  1
  In  In7  1  0.250000  0.250000  0.250000  1
  N  N8  1  0.000000  0.000000  0.000000  1
  F  F9  1  0.500000  0.500000  0.500000  1
