# generated using pymatgen
data_NiAgF3
_symmetry_space_group_name_H-M   'P 1'
_cell_length_a   5.67314277
_cell_length_b   5.67314277
_cell_length_c   7.63391055
_cell_angle_alpha   90.00000000
_cell_angle_beta   90.00000000
_cell_angle_gamma   148.82497887
_symmetry_Int_Tables_number   1
_chemical_formula_structural   NiAgF3
_chemical_formula_sum   'Ni2 Ag2 F6'
_cell_volume   127.18447802
_cell_formula_units_Z   2
loop_
 _symmetry_equiv_pos_site_id
 _symmetry_equiv_pos_as_xyz
  1  'x, y, z'
loop_
 _atom_site_type_symbol
 _atom_site_label
 _atom_site_symmetry_multiplicity
 _atom_site_fract_x
 _atom_site_fract_y
 _atom_site_fract_z
 _atom_site_occupancy
  Ni  Ni0  1  0.000000  0.000000  0.500000  1
  Ni  Ni1  1  0.000000  0.000000  0.000000  1
  Ag  Ag2  1  0.745499  0.254501  0.750000  1
  Ag  Ag3  1  0.254501  0.745499  0.250000  1
  F  F4  1  0.620285  0.379715  0.452018  1
  F  F5  1  0.379715  0.620285  0.952018  1
  F  F6  1  0.620285  0.379715  0.047982  1
  F  F7  1  0.379715  0.620285  0.547982  1
  F  F8  1  0.060708  0.939292  0.750000  1
  F  F9  1  0.939292  0.060708  0.250000  1
