# generated using pymatgen
data_La11In9Ni4
_symmetry_space_group_name_H-M   'P 1'
_cell_length_a   13.60713323
_cell_length_b   13.60713323
_cell_length_c   3.86010498
_cell_angle_alpha   90.00000000
_cell_angle_beta   90.00000000
_cell_angle_gamma   112.49784721
_symmetry_Int_Tables_number   1
_chemical_formula_structural   La11In9Ni4
_chemical_formula_sum   'La11 In9 Ni4'
_cell_volume   660.32006598
_cell_formula_units_Z   1
loop_
 _symmetry_equiv_pos_site_id
 _symmetry_equiv_pos_as_xyz
  1  'x, y, z'
loop_
 _atom_site_type_symbol
 _atom_site_label
 _atom_site_symmetry_multiplicity
 _atom_site_fract_x
 _atom_site_fract_y
 _atom_site_fract_z
 _atom_site_occupancy
  La  La0  1  0.312842  0.312842  0.000000  1
  La  La1  1  0.687158  0.687158  0.000000  1
  La  La2  1  0.000000  0.000000  0.000000  1
  La  La3  1  0.079009  0.417693  0.000000  1
  La  La4  1  0.920991  0.582307  0.000000  1
  La  La5  1  0.417693  0.079009  0.000000  1
  La  La6  1  0.582307  0.920991  1.000000  1
  La  La7  1  0.837971  0.162029  0.000000  1
  La  La8  1  0.162029  0.837971  1.000000  1
  La  La9  1  0.624424  0.375576  0.000000  1
  La  La10  1  0.375576  0.624424  0.000000  1
  In  In11  1  0.835249  0.367156  0.500000  1
  In  In12  1  0.164751  0.632844  0.500000  1
  In  In13  1  0.367156  0.835249  0.500000  1
  In  In14  1  0.632844  0.164751  0.500000  1
  In  In15  1  0.080940  0.221643  0.500000  1
  In  In16  1  0.919060  0.778357  0.500000  1
  In  In17  1  0.221643  0.080940  0.500000  1
  In  In18  1  0.778357  0.919060  0.500000  1
  In  In19  1  0.500000  0.500000  0.500000  1
  Ni  Ni20  1  0.242333  0.446598  0.500000  1
  Ni  Ni21  1  0.757667  0.553402  0.500000  1
  Ni  Ni22  1  0.446598  0.242333  0.500000  1
  Ni  Ni23  1  0.553402  0.757667  0.500000  1
