# generated using pymatgen
data_KDy(CO3)2
_symmetry_space_group_name_H-M   'P 1'
_cell_length_a   6.42229723
_cell_length_b   6.42229723
_cell_length_c   7.06981122
_cell_angle_alpha   76.63430994
_cell_angle_beta   103.36569006
_cell_angle_gamma   82.83190063
_symmetry_Int_Tables_number   1
_chemical_formula_structural   KDy(CO3)2
_chemical_formula_sum   'K2 Dy2 C4 O12'
_cell_volume   271.08189896
_cell_formula_units_Z   2
loop_
 _symmetry_equiv_pos_site_id
 _symmetry_equiv_pos_as_xyz
  1  'x, y, z'
loop_
 _atom_site_type_symbol
 _atom_site_label
 _atom_site_symmetry_multiplicity
 _atom_site_fract_x
 _atom_site_fract_y
 _atom_site_fract_z
 _atom_site_occupancy
  K  K0  1  0.880609  0.880609  0.250000  1
  K  K1  1  0.119391  0.119391  0.750000  1
  Dy  Dy2  1  0.407576  0.407576  0.250000  1
  Dy  Dy3  1  0.592424  0.592424  0.750000  1
  C  C4  1  0.603344  0.143874  0.748791  1
  C  C5  1  0.143874  0.603344  0.751209  1
  C  C6  1  0.396656  0.856126  0.251209  1
  C  C7  1  0.856126  0.396656  0.248791  1
  O  O8  1  0.056275  0.407908  0.265934  1
  O  O9  1  0.407908  0.056275  0.234066  1
  O  O10  1  0.943725  0.592092  0.734066  1
  O  O11  1  0.592092  0.943725  0.765934  1
  O  O12  1  0.792273  0.257445  0.376986  1
  O  O13  1  0.257445  0.792273  0.123014  1
  O  O14  1  0.207727  0.742555  0.623014  1
  O  O15  1  0.742555  0.207727  0.876986  1
  O  O16  1  0.699828  0.534089  0.101110  1
  O  O17  1  0.534089  0.699828  0.398890  1
  O  O18  1  0.300172  0.465911  0.898890  1
  O  O19  1  0.465911  0.300172  0.601110  1
