# generated using pymatgen
data_VCuO2
_symmetry_space_group_name_H-M   'P 1'
_cell_length_a   3.04986141
_cell_length_b   3.04986141
_cell_length_c   11.58814703
_cell_angle_alpha   90.00000000
_cell_angle_beta   90.00000000
_cell_angle_gamma   120.00000000
_symmetry_Int_Tables_number   1
_chemical_formula_structural   VCuO2
_chemical_formula_sum   'V2 Cu2 O4'
_cell_volume   93.34796177
_cell_formula_units_Z   2
loop_
 _symmetry_equiv_pos_site_id
 _symmetry_equiv_pos_as_xyz
  1  'x, y, z'
loop_
 _atom_site_type_symbol
 _atom_site_label
 _atom_site_symmetry_multiplicity
 _atom_site_fract_x
 _atom_site_fract_y
 _atom_site_fract_z
 _atom_site_occupancy
  V  V0  1  0.000000  0.000000  0.000000  1
  V  V1  1  0.000000  0.000000  0.500000  1
  Cu  Cu2  1  0.333333  0.666667  0.250000  1
  Cu  Cu3  1  0.666667  0.333333  0.750000  1
  O  O4  1  0.333333  0.666667  0.409447  1
  O  O5  1  0.333333  0.666667  0.090553  1
  O  O6  1  0.666667  0.333333  0.909447  1
  O  O7  1  0.666667  0.333333  0.590553  1
