# generated using pymatgen
data_NaBH4
_symmetry_space_group_name_H-M   'P 1'
_cell_length_a   4.28701773
_cell_length_b   4.28701773
_cell_length_c   4.28701773
_cell_angle_alpha   60.00000000
_cell_angle_beta   60.00000000
_cell_angle_gamma   60.00000000
_symmetry_Int_Tables_number   1
_chemical_formula_structural   NaBH4
_chemical_formula_sum   'Na1 B1 H4'
_cell_volume   55.71226844
_cell_formula_units_Z   1
loop_
 _symmetry_equiv_pos_site_id
 _symmetry_equiv_pos_as_xyz
  1  'x, y, z'
loop_
 _atom_site_type_symbol
 _atom_site_label
 _atom_site_symmetry_multiplicity
 _atom_site_fract_x
 _atom_site_fract_y
 _atom_site_fract_z
 _atom_site_occupancy
  Na  Na0  1  0.000000  0.000000  0.000000  1
  B  B1  1  0.500000  0.500000  0.500000  1
  H  H2  1  0.616877  0.149368  0.616877  1
  H  H3  1  0.616877  0.616877  0.616877  1
  H  H4  1  0.616877  0.616877  0.149368  1
  H  H5  1  0.149368  0.616877  0.616877  1
