# generated using pymatgen
data_YWN3
_symmetry_space_group_name_H-M   'P 1'
_cell_length_a   5.76671000
_cell_length_b   3.65097000
_cell_length_c   8.01112958
_cell_angle_alpha   90.00000000
_cell_angle_beta   108.02987843
_cell_angle_gamma   90.00000000
_symmetry_Int_Tables_number   1
_chemical_formula_structural   YWN3
_chemical_formula_sum   'Y2 W2 N6'
_cell_volume   160.38465233
_cell_formula_units_Z   2
loop_
 _symmetry_equiv_pos_site_id
 _symmetry_equiv_pos_as_xyz
  1  'x, y, z'
loop_
 _atom_site_type_symbol
 _atom_site_label
 _atom_site_symmetry_multiplicity
 _atom_site_fract_x
 _atom_site_fract_y
 _atom_site_fract_z
 _atom_site_occupancy
  Y  Y0  1  0.295760  0.250000  0.596860  1
  Y  Y1  1  0.704240  0.750000  0.403140  1
  W  W2  1  0.114450  0.250000  0.180580  1
  W  W3  1  0.885550  0.750000  0.819420  1
  N  N4  1  0.061840  0.750000  0.662300  1
  N  N5  1  0.573100  0.750000  0.654800  1
  N  N6  1  0.938160  0.250000  0.337700  1
  N  N7  1  0.426900  0.250000  0.345200  1
  N  N8  1  0.870760  0.250000  0.910420  1
  N  N9  1  0.129240  0.750000  0.089580  1
