# generated using pymatgen
data_Nd(BIr)4
_symmetry_space_group_name_H-M   'P 1'
_cell_length_a   7.70268591
_cell_length_b   7.70268591
_cell_length_c   3.99445481
_cell_angle_alpha   90.00000000
_cell_angle_beta   90.00000000
_cell_angle_gamma   90.00000000
_symmetry_Int_Tables_number   1
_chemical_formula_structural   Nd(BIr)4
_chemical_formula_sum   'Nd2 B8 Ir8'
_cell_volume   236.99647719
_cell_formula_units_Z   2
loop_
 _symmetry_equiv_pos_site_id
 _symmetry_equiv_pos_as_xyz
  1  'x, y, z'
loop_
 _atom_site_type_symbol
 _atom_site_label
 _atom_site_symmetry_multiplicity
 _atom_site_fract_x
 _atom_site_fract_y
 _atom_site_fract_z
 _atom_site_occupancy
  Nd  Nd0  1  0.500000  0.500000  0.000000  1
  Nd  Nd1  1  0.000000  0.000000  0.500000  1
  B  B2  1  0.658293  0.779271  0.608687  1
  B  B3  1  0.158293  0.279271  0.891313  1
  B  B4  1  0.279271  0.841707  0.108687  1
  B  B5  1  0.720729  0.158293  0.108687  1
  B  B6  1  0.341707  0.220729  0.608687  1
  B  B7  1  0.841707  0.720729  0.891313  1
  B  B8  1  0.220729  0.658293  0.391313  1
  B  B9  1  0.779271  0.341707  0.391313  1
  Ir  Ir10  1  0.340966  0.109609  0.109139  1
  Ir  Ir11  1  0.659034  0.890391  0.109139  1
  Ir  Ir12  1  0.609609  0.159034  0.609139  1
  Ir  Ir13  1  0.109609  0.659034  0.890861  1
  Ir  Ir14  1  0.159034  0.390391  0.390861  1
  Ir  Ir15  1  0.840966  0.609609  0.390861  1
  Ir  Ir16  1  0.890391  0.340966  0.890861  1
  Ir  Ir17  1  0.390391  0.840966  0.609139  1
