# generated using pymatgen
data_K2AgP
_symmetry_space_group_name_H-M   'P 1'
_cell_length_a   6.30260090
_cell_length_b   6.30260090
_cell_length_c   6.05052763
_cell_angle_alpha   90.00000000
_cell_angle_beta   90.00000000
_cell_angle_gamma   104.13337237
_symmetry_Int_Tables_number   1
_chemical_formula_structural   K2AgP
_chemical_formula_sum   'K4 Ag2 P2'
_cell_volume   233.06854974
_cell_formula_units_Z   2
loop_
 _symmetry_equiv_pos_site_id
 _symmetry_equiv_pos_as_xyz
  1  'x, y, z'
loop_
 _atom_site_type_symbol
 _atom_site_label
 _atom_site_symmetry_multiplicity
 _atom_site_fract_x
 _atom_site_fract_y
 _atom_site_fract_z
 _atom_site_occupancy
  K  K0  1  0.968437  0.312202  0.750000  1
  K  K1  1  0.312202  0.968437  0.750000  1
  K  K2  1  0.031563  0.687798  0.250000  1
  K  K3  1  0.687798  0.031563  0.250000  1
  Ag  Ag4  1  0.500000  0.500000  0.500000  1
  Ag  Ag5  1  0.500000  0.500000  0.000000  1
  P  P6  1  0.751778  0.751778  0.750000  1
  P  P7  1  0.248222  0.248222  0.250000  1
