# generated using pymatgen
data_Ba3Ge4
_symmetry_space_group_name_H-M   'P 1'
_cell_length_a   8.58301263
_cell_length_b   8.58301263
_cell_length_c   12.27184291
_cell_angle_alpha   90.00000000
_cell_angle_beta   90.00000000
_cell_angle_gamma   91.93905476
_symmetry_Int_Tables_number   1
_chemical_formula_structural   Ba3Ge4
_chemical_formula_sum   'Ba12 Ge16'
_cell_volume   903.52575164
_cell_formula_units_Z   4
loop_
 _symmetry_equiv_pos_site_id
 _symmetry_equiv_pos_as_xyz
  1  'x, y, z'
loop_
 _atom_site_type_symbol
 _atom_site_label
 _atom_site_symmetry_multiplicity
 _atom_site_fract_x
 _atom_site_fract_y
 _atom_site_fract_z
 _atom_site_occupancy
  Ba  Ba0  1  0.500000  0.000000  0.255484  1
  Ba  Ba1  1  0.000000  0.500000  0.744516  1
  Ba  Ba2  1  0.500000  0.000000  0.744516  1
  Ba  Ba3  1  0.000000  0.500000  0.255484  1
  Ba  Ba4  1  0.500000  0.500000  0.674603  1
  Ba  Ba5  1  0.500000  0.500000  0.325397  1
  Ba  Ba6  1  0.000000  0.000000  0.838577  1
  Ba  Ba7  1  0.000000  0.000000  0.161423  1
  Ba  Ba8  1  0.336811  0.336811  0.000000  1
  Ba  Ba9  1  0.663189  0.663189  0.000000  1
  Ba  Ba10  1  0.159160  0.840840  0.500000  1
  Ba  Ba11  1  0.840840  0.159160  0.500000  1
  Ge  Ge12  1  0.803273  0.803273  0.650187  1
  Ge  Ge13  1  0.196727  0.196727  0.650187  1
  Ge  Ge14  1  0.803273  0.803273  0.349813  1
  Ge  Ge15  1  0.196727  0.196727  0.349813  1
  Ge  Ge16  1  0.704855  0.295145  0.861827  1
  Ge  Ge17  1  0.295145  0.704855  0.861827  1
  Ge  Ge18  1  0.295145  0.704855  0.138173  1
  Ge  Ge19  1  0.704855  0.295145  0.138173  1
  Ge  Ge20  1  0.659780  0.063832  0.000000  1
  Ge  Ge21  1  0.340220  0.936168  0.000000  1
  Ge  Ge22  1  0.063832  0.659780  0.000000  1
  Ge  Ge23  1  0.936168  0.340220  0.000000  1
  Ge  Ge24  1  0.800526  0.588726  0.500000  1
  Ge  Ge25  1  0.199474  0.411274  0.500000  1
  Ge  Ge26  1  0.588726  0.800526  0.500000  1
  Ge  Ge27  1  0.411274  0.199474  0.500000  1
