# generated using pymatgen
data_TaO3
_symmetry_space_group_name_H-M   'P 1'
_cell_length_a   4.67564596
_cell_length_b   4.67564596
_cell_length_c   3.72423625
_cell_angle_alpha   90.00000000
_cell_angle_beta   90.00000000
_cell_angle_gamma   120.00000000
_symmetry_Int_Tables_number   1
_chemical_formula_structural   TaO3
_chemical_formula_sum   'Ta2 O6'
_cell_volume   70.51006126
_cell_formula_units_Z   2
loop_
 _symmetry_equiv_pos_site_id
 _symmetry_equiv_pos_as_xyz
  1  'x, y, z'
loop_
 _atom_site_type_symbol
 _atom_site_label
 _atom_site_symmetry_multiplicity
 _atom_site_fract_x
 _atom_site_fract_y
 _atom_site_fract_z
 _atom_site_occupancy
  Ta  Ta0  1  0.333333  0.666667  0.750000  1
  Ta  Ta1  1  0.666667  0.333333  0.250000  1
  O  O2  1  0.180020  0.360040  0.250000  1
  O  O3  1  0.639960  0.819980  0.250000  1
  O  O4  1  0.180020  0.819980  0.250000  1
  O  O5  1  0.819980  0.639960  0.750000  1
  O  O6  1  0.360040  0.180020  0.750000  1
  O  O7  1  0.819980  0.180020  0.750000  1
