# generated using pymatgen
data_Yb3Os
_symmetry_space_group_name_H-M   'P 1'
_cell_length_a   5.18256914
_cell_length_b   5.18256914
_cell_length_c   5.18256914
_cell_angle_alpha   124.10174356
_cell_angle_beta   124.10174356
_cell_angle_gamma   83.03122631
_symmetry_Int_Tables_number   1
_chemical_formula_structural   Yb3Os
_chemical_formula_sum   'Yb3 Os1'
_cell_volume   91.58267403
_cell_formula_units_Z   1
loop_
 _symmetry_equiv_pos_site_id
 _symmetry_equiv_pos_as_xyz
  1  'x, y, z'
loop_
 _atom_site_type_symbol
 _atom_site_label
 _atom_site_symmetry_multiplicity
 _atom_site_fract_x
 _atom_site_fract_y
 _atom_site_fract_z
 _atom_site_occupancy
  Yb  Yb0  1  0.250000  0.750000  0.500000  1
  Yb  Yb1  1  0.750000  0.250000  0.500000  1
  Yb  Yb2  1  0.500000  0.500000  0.000000  1
  Os  Os3  1  0.000000  0.000000  0.000000  1
