# generated using pymatgen
data_SmGe
_symmetry_space_group_name_H-M   'P 1'
_cell_length_a   5.90090468
_cell_length_b   5.90090468
_cell_length_c   4.01639385
_cell_angle_alpha   90.00000000
_cell_angle_beta   90.00000000
_cell_angle_gamma   136.11310223
_symmetry_Int_Tables_number   1
_chemical_formula_structural   SmGe
_chemical_formula_sum   'Sm2 Ge2'
_cell_volume   96.95165998
_cell_formula_units_Z   2
loop_
 _symmetry_equiv_pos_site_id
 _symmetry_equiv_pos_as_xyz
  1  'x, y, z'
loop_
 _atom_site_type_symbol
 _atom_site_label
 _atom_site_symmetry_multiplicity
 _atom_site_fract_x
 _atom_site_fract_y
 _atom_site_fract_z
 _atom_site_occupancy
  Sm  Sm0  1  0.138529  0.861471  0.250000  1
  Sm  Sm1  1  0.861471  0.138529  0.750000  1
  Ge  Ge2  1  0.417624  0.582376  0.250000  1
  Ge  Ge3  1  0.582376  0.417624  0.750000  1
