# generated using pymatgen
data_AgBrO2
_symmetry_space_group_name_H-M   'P 1'
_cell_length_a   4.21500975
_cell_length_b   3.59624148
_cell_length_c   11.04855640
_cell_angle_alpha   90.00000000
_cell_angle_beta   95.65002055
_cell_angle_gamma   90.00000000
_symmetry_Int_Tables_number   1
_chemical_formula_structural   AgBrO2
_chemical_formula_sum   'Ag2 Br2 O4'
_cell_volume   166.66252142
_cell_formula_units_Z   2
loop_
 _symmetry_equiv_pos_site_id
 _symmetry_equiv_pos_as_xyz
  1  'x, y, z'
loop_
 _atom_site_type_symbol
 _atom_site_label
 _atom_site_symmetry_multiplicity
 _atom_site_fract_x
 _atom_site_fract_y
 _atom_site_fract_z
 _atom_site_occupancy
  Ag  Ag0  1  0.352496  0.750000  0.094229  1
  Ag  Ag1  1  0.647504  0.250000  0.905771  1
  Br  Br2  1  0.135479  0.750000  0.840105  1
  Br  Br3  1  0.864521  0.250000  0.159895  1
  O  O4  1  0.697778  0.750000  0.474346  1
  O  O5  1  0.571621  0.250000  0.580171  1
  O  O6  1  0.428379  0.750000  0.419829  1
  O  O7  1  0.302222  0.250000  0.525654  1
