# generated using pymatgen
data_LiCuO2
_symmetry_space_group_name_H-M   'P 1'
_cell_length_a   5.35000615
_cell_length_b   5.35000615
_cell_length_c   5.29642067
_cell_angle_alpha   90.00000000
_cell_angle_beta   90.00000000
_cell_angle_gamma   144.27574392
_symmetry_Int_Tables_number   1
_chemical_formula_structural   LiCuO2
_chemical_formula_sum   'Li2 Cu2 O4'
_cell_volume   88.51529443
_cell_formula_units_Z   2
loop_
 _symmetry_equiv_pos_site_id
 _symmetry_equiv_pos_as_xyz
  1  'x, y, z'
loop_
 _atom_site_type_symbol
 _atom_site_label
 _atom_site_symmetry_multiplicity
 _atom_site_fract_x
 _atom_site_fract_y
 _atom_site_fract_z
 _atom_site_occupancy
  Li  Li0  1  0.282372  0.717628  0.750000  1
  Li  Li1  1  0.717628  0.282372  0.250000  1
  Cu  Cu2  1  0.004037  0.995963  0.750000  1
  Cu  Cu3  1  0.995963  0.004037  0.250000  1
  O  O4  1  0.125598  0.874402  0.008154  1
  O  O5  1  0.125598  0.874402  0.491846  1
  O  O6  1  0.874402  0.125598  0.991846  1
  O  O7  1  0.874402  0.125598  0.508154  1
