# generated using pymatgen
data_Rb3BP2
_symmetry_space_group_name_H-M   'P 1'
_cell_length_a   6.73477454
_cell_length_b   6.73477454
_cell_length_c   9.43387022
_cell_angle_alpha   75.54742130
_cell_angle_beta   104.45257870
_cell_angle_gamma   92.07071563
_symmetry_Int_Tables_number   1
_chemical_formula_structural   Rb3BP2
_chemical_formula_sum   'Rb6 B2 P4'
_cell_volume   401.08440904
_cell_formula_units_Z   2
loop_
 _symmetry_equiv_pos_site_id
 _symmetry_equiv_pos_as_xyz
  1  'x, y, z'
loop_
 _atom_site_type_symbol
 _atom_site_label
 _atom_site_symmetry_multiplicity
 _atom_site_fract_x
 _atom_site_fract_y
 _atom_site_fract_z
 _atom_site_occupancy
  Rb  Rb0  1  0.756526  0.345217  0.980806  1
  Rb  Rb1  1  0.345217  0.756526  0.519194  1
  Rb  Rb2  1  0.243474  0.654783  0.019194  1
  Rb  Rb3  1  0.654783  0.243474  0.480806  1
  Rb  Rb4  1  0.155348  0.155348  0.750000  1
  Rb  Rb5  1  0.844652  0.844652  0.250000  1
  B  B6  1  0.216999  0.216999  0.250000  1
  B  B7  1  0.783001  0.783001  0.750000  1
  P  P8  1  0.097868  0.343704  0.353206  1
  P  P9  1  0.343704  0.097868  0.146794  1
  P  P10  1  0.656296  0.902132  0.853206  1
  P  P11  1  0.902132  0.656296  0.646794  1
