# generated using pymatgen
data_SiC
_symmetry_space_group_name_H-M   'P 1'
_cell_length_a   17.79981460
_cell_length_b   17.79981460
_cell_length_c   17.79981460
_cell_angle_alpha   9.97662268
_cell_angle_beta   9.97662268
_cell_angle_gamma   9.97662268
_symmetry_Int_Tables_number   1
_chemical_formula_structural   SiC
_chemical_formula_sum   'Si7 C7'
_cell_volume   146.96068080
_cell_formula_units_Z   7
loop_
 _symmetry_equiv_pos_site_id
 _symmetry_equiv_pos_as_xyz
  1  'x, y, z'
loop_
 _atom_site_type_symbol
 _atom_site_label
 _atom_site_symmetry_multiplicity
 _atom_site_fract_x
 _atom_site_fract_y
 _atom_site_fract_z
 _atom_site_occupancy
  Si  Si0  1  0.190474  0.190474  0.190474  1
  Si  Si1  1  0.285773  0.285773  0.285773  1
  Si  Si2  1  0.428576  0.428576  0.428576  1
  Si  Si3  1  0.571451  0.571451  0.571451  1
  Si  Si4  1  0.714266  0.714266  0.714266  1
  Si  Si5  1  0.809565  0.809565  0.809565  1
  Si  Si6  1  0.000018  0.000018  0.000018  1
  C  C7  1  0.154755  0.154755  0.154755  1
  C  C8  1  0.250056  0.250056  0.250056  1
  C  C9  1  0.392755  0.392755  0.392755  1
  C  C10  1  0.535629  0.535629  0.535629  1
  C  C11  1  0.678548  0.678548  0.678548  1
  C  C12  1  0.773849  0.773849  0.773849  1
  C  C13  1  0.964288  0.964288  0.964288  1
