# generated using pymatgen
data_AgAsO2
_symmetry_space_group_name_H-M   'P 1'
_cell_length_a   5.27787978
_cell_length_b   5.27787978
_cell_length_c   6.91504926
_cell_angle_alpha   70.98095678
_cell_angle_beta   109.01904322
_cell_angle_gamma   128.35543509
_symmetry_Int_Tables_number   1
_chemical_formula_structural   AgAsO2
_chemical_formula_sum   'Ag2 As2 O4'
_cell_volume   140.80601656
_cell_formula_units_Z   2
loop_
 _symmetry_equiv_pos_site_id
 _symmetry_equiv_pos_as_xyz
  1  'x, y, z'
loop_
 _atom_site_type_symbol
 _atom_site_label
 _atom_site_symmetry_multiplicity
 _atom_site_fract_x
 _atom_site_fract_y
 _atom_site_fract_z
 _atom_site_occupancy
  Ag  Ag0  1  0.597550  0.364150  0.828200  1
  Ag  Ag1  1  0.364150  0.597550  0.171800  1
  As  As2  1  0.589710  0.258930  0.332230  1
  As  As3  1  0.258930  0.589710  0.667770  1
  O  O4  1  0.751180  0.203080  0.180250  1
  O  O5  1  0.203080  0.751180  0.819750  1
  O  O6  1  0.253860  0.828280  0.403060  1
  O  O7  1  0.828280  0.253860  0.596940  1
