# generated using pymatgen
data_CsNaF3
_symmetry_space_group_name_H-M   'P 1'
_cell_length_a   4.15844513
_cell_length_b   7.00255367
_cell_length_c   13.57325086
_cell_angle_alpha   90.00000000
_cell_angle_beta   90.00000000
_cell_angle_gamma   90.00000000
_symmetry_Int_Tables_number   1
_chemical_formula_structural   CsNaF3
_chemical_formula_sum   'Cs4 Na4 F12'
_cell_volume   395.24947106
_cell_formula_units_Z   4
loop_
 _symmetry_equiv_pos_site_id
 _symmetry_equiv_pos_as_xyz
  1  'x, y, z'
loop_
 _atom_site_type_symbol
 _atom_site_label
 _atom_site_symmetry_multiplicity
 _atom_site_fract_x
 _atom_site_fract_y
 _atom_site_fract_z
 _atom_site_occupancy
  Cs  Cs0  1  0.750000  0.605741  0.829394  1
  Cs  Cs1  1  0.250000  0.394259  0.170606  1
  Cs  Cs2  1  0.750000  0.105741  0.670606  1
  Cs  Cs3  1  0.250000  0.894259  0.329394  1
  Na  Na4  1  0.250000  0.634573  0.573914  1
  Na  Na5  1  0.750000  0.365427  0.426086  1
  Na  Na6  1  0.250000  0.134573  0.926086  1
  Na  Na7  1  0.750000  0.865427  0.073914  1
  F  F8  1  0.750000  0.765139  0.511176  1
  F  F9  1  0.250000  0.234861  0.488824  1
  F  F10  1  0.750000  0.265139  0.988824  1
  F  F11  1  0.250000  0.734861  0.011176  1
  F  F12  1  0.250000  0.498728  0.411760  1
  F  F13  1  0.750000  0.501272  0.588240  1
  F  F14  1  0.250000  0.998728  0.088240  1
  F  F15  1  0.750000  0.001272  0.911760  1
  F  F16  1  0.250000  0.813798  0.710092  1
  F  F17  1  0.750000  0.186202  0.289908  1
  F  F18  1  0.250000  0.313798  0.789908  1
  F  F19  1  0.750000  0.686202  0.210092  1
