# generated using pymatgen
data_YB2C
_symmetry_space_group_name_H-M   'P 1'
_cell_length_a   6.80219657
_cell_length_b   6.80219657
_cell_length_c   7.49690635
_cell_angle_alpha   90.00000000
_cell_angle_beta   90.00000000
_cell_angle_gamma   90.00000000
_symmetry_Int_Tables_number   1
_chemical_formula_structural   YB2C
_chemical_formula_sum   'Y8 B16 C8'
_cell_volume   346.88094352
_cell_formula_units_Z   8
loop_
 _symmetry_equiv_pos_site_id
 _symmetry_equiv_pos_as_xyz
  1  'x, y, z'
loop_
 _atom_site_type_symbol
 _atom_site_label
 _atom_site_symmetry_multiplicity
 _atom_site_fract_x
 _atom_site_fract_y
 _atom_site_fract_z
 _atom_site_occupancy
  Y  Y0  1  0.309605  0.809605  0.750000  1
  Y  Y1  1  0.190395  0.309605  0.250000  1
  Y  Y2  1  0.809605  0.690395  0.250000  1
  Y  Y3  1  0.690395  0.190395  0.750000  1
  Y  Y4  1  0.690395  0.190395  0.250000  1
  Y  Y5  1  0.809605  0.690395  0.750000  1
  Y  Y6  1  0.190395  0.309605  0.750000  1
  Y  Y7  1  0.309605  0.809605  0.250000  1
  B  B8  1  0.151683  0.034664  0.000000  1
  B  B9  1  0.534664  0.651683  0.500000  1
  B  B10  1  0.848317  0.965336  0.000000  1
  B  B11  1  0.348317  0.534664  0.000000  1
  B  B12  1  0.651683  0.465336  0.000000  1
  B  B13  1  0.034664  0.848317  0.500000  1
  B  B14  1  0.965336  0.151683  0.500000  1
  B  B15  1  0.465336  0.348317  0.500000  1
  B  B16  1  0.097046  0.595109  0.000000  1
  B  B17  1  0.404891  0.097046  0.500000  1
  B  B18  1  0.595109  0.902954  0.500000  1
  B  B19  1  0.597046  0.904891  0.000000  1
  B  B20  1  0.402954  0.095109  0.000000  1
  B  B21  1  0.902954  0.404891  0.000000  1
  B  B22  1  0.095109  0.597046  0.500000  1
  B  B23  1  0.904891  0.402954  0.500000  1
  C  C24  1  0.177185  0.040514  0.500000  1
  C  C25  1  0.677185  0.459486  0.500000  1
  C  C26  1  0.322815  0.540514  0.500000  1
  C  C27  1  0.959486  0.177185  0.000000  1
  C  C28  1  0.040514  0.822815  0.000000  1
  C  C29  1  0.540514  0.677185  0.000000  1
  C  C30  1  0.822815  0.959486  0.500000  1
  C  C31  1  0.459486  0.322815  0.000000  1
