# generated using pymatgen
data_Nd2Co12P7
_symmetry_space_group_name_H-M   'P 1'
_cell_length_a   9.08197901
_cell_length_b   9.08197901
_cell_length_c   3.63209126
_cell_angle_alpha   90.00000000
_cell_angle_beta   90.00000000
_cell_angle_gamma   120.00000000
_symmetry_Int_Tables_number   1
_chemical_formula_structural   Nd2Co12P7
_chemical_formula_sum   'Nd2 Co12 P7'
_cell_volume   259.44683138
_cell_formula_units_Z   1
loop_
 _symmetry_equiv_pos_site_id
 _symmetry_equiv_pos_as_xyz
  1  'x, y, z'
loop_
 _atom_site_type_symbol
 _atom_site_label
 _atom_site_symmetry_multiplicity
 _atom_site_fract_x
 _atom_site_fract_y
 _atom_site_fract_z
 _atom_site_occupancy
  Nd  Nd0  1  0.000000  0.000000  0.000000  1
  Nd  Nd1  1  0.333333  0.666667  0.500000  1
  Co  Co2  1  0.098683  0.392000  0.000000  1
  Co  Co3  1  0.608000  0.706682  0.000000  1
  Co  Co4  1  0.293318  0.901317  0.000000  1
  Co  Co5  1  0.047087  0.764878  0.500000  1
  Co  Co6  1  0.235122  0.282208  0.500000  1
  Co  Co7  1  0.717792  0.952913  0.500000  1
  Co  Co8  1  0.816709  0.603822  0.000000  1
  Co  Co9  1  0.396178  0.212888  0.000000  1
  Co  Co10  1  0.787112  0.183291  0.000000  1
  Co  Co11  1  0.897119  0.435935  0.500000  1
  Co  Co12  1  0.564065  0.461184  0.500000  1
  Co  Co13  1  0.538816  0.102881  0.500000  1
  P  P14  1  0.771786  0.731136  0.500000  1
  P  P15  1  0.268864  0.040650  0.500000  1
  P  P16  1  0.959350  0.228214  0.500000  1
  P  P17  1  0.666667  0.333333  0.000000  1
  P  P18  1  0.068140  0.627880  0.000000  1
  P  P19  1  0.372120  0.440260  0.000000  1
  P  P20  1  0.559740  0.931860  0.000000  1
