# generated using pymatgen
data_Li5Mg
_symmetry_space_group_name_H-M   'P 1'
_cell_length_a   5.85167048
_cell_length_b   5.85167048
_cell_length_c   7.23966184
_cell_angle_alpha   75.34347734
_cell_angle_beta   104.65652266
_cell_angle_gamma   149.51699296
_symmetry_Int_Tables_number   1
_chemical_formula_structural   Li5Mg
_chemical_formula_sum   'Li5 Mg1'
_cell_volume   121.35443958
_cell_formula_units_Z   1
loop_
 _symmetry_equiv_pos_site_id
 _symmetry_equiv_pos_as_xyz
  1  'x, y, z'
loop_
 _atom_site_type_symbol
 _atom_site_label
 _atom_site_symmetry_multiplicity
 _atom_site_fract_x
 _atom_site_fract_y
 _atom_site_fract_z
 _atom_site_occupancy
  Li  Li0  1  0.999195  0.000805  0.000284  1
  Li  Li1  1  0.278405  0.721595  0.056613  1
  Li  Li2  1  0.666617  0.333383  0.332239  1
  Li  Li3  1  0.943949  0.056051  0.387691  1
  Li  Li4  1  0.333582  0.666418  0.666290  1
  Mg  Mg5  1  0.611587  0.388413  0.723550  1
