# generated using pymatgen
data_TiV3Fe2(PO4)6
_symmetry_space_group_name_H-M   'P 1'
_cell_length_a   8.53921916
_cell_length_b   8.53921916
_cell_length_c   8.53921916
_cell_angle_alpha   61.08106847
_cell_angle_beta   61.08106847
_cell_angle_gamma   61.08106847
_symmetry_Int_Tables_number   1
_chemical_formula_structural   TiV3Fe2(PO4)6
_chemical_formula_sum   'Ti1 V3 Fe2 P6 O24'
_cell_volume   451.00625858
_cell_formula_units_Z   1
loop_
 _symmetry_equiv_pos_site_id
 _symmetry_equiv_pos_as_xyz
  1  'x, y, z'
loop_
 _atom_site_type_symbol
 _atom_site_label
 _atom_site_symmetry_multiplicity
 _atom_site_fract_x
 _atom_site_fract_y
 _atom_site_fract_z
 _atom_site_occupancy
  Ti  Ti0  1  0.143628  0.143628  0.143628  1
  V  V1  1  0.641376  0.641376  0.641376  1
  V  V2  1  0.856771  0.856771  0.856771  1
  V  V3  1  0.358132  0.358132  0.358132  1
  Fe  Fe4  1  0.999908  0.999908  0.999908  1
  Fe  Fe5  1  0.499631  0.499631  0.499631  1
  P  P6  1  0.957270  0.250635  0.543751  1
  P  P7  1  0.543751  0.957270  0.250635  1
  P  P8  1  0.250635  0.543751  0.957270  1
  P  P9  1  0.749704  0.457507  0.040876  1
  P  P10  1  0.457507  0.040876  0.749704  1
  P  P11  1  0.040876  0.749704  0.457507  1
  O  O12  1  0.504447  0.115472  0.315080  1
  O  O13  1  0.315080  0.504447  0.115472  1
  O  O14  1  0.115472  0.315080  0.504447  1
  O  O15  1  0.941739  0.088679  0.738666  1
  O  O16  1  0.005048  0.183295  0.381224  1
  O  O17  1  0.762540  0.408367  0.554587  1
  O  O18  1  0.738666  0.941739  0.088679  1
  O  O19  1  0.554587  0.762540  0.408367  1
  O  O20  1  0.814546  0.615582  0.003200  1
  O  O21  1  0.408367  0.554587  0.762540  1
  O  O22  1  0.912178  0.260281  0.059263  1
  O  O23  1  0.615582  0.003200  0.814546  1
  O  O24  1  0.381224  0.005048  0.183295  1
  O  O25  1  0.088679  0.738666  0.941739  1
  O  O26  1  0.591204  0.439225  0.239935  1
  O  O27  1  0.183295  0.381224  0.005048  1
  O  O28  1  0.439225  0.239935  0.591204  1
  O  O29  1  0.260281  0.059263  0.912178  1
  O  O30  1  0.239935  0.591204  0.439225  1
  O  O31  1  0.003200  0.814546  0.615582  1
  O  O32  1  0.059263  0.912178  0.260281  1
  O  O33  1  0.885508  0.686841  0.493905  1
  O  O34  1  0.686841  0.493905  0.885508  1
  O  O35  1  0.493905  0.885508  0.686841  1
