# generated using pymatgen
data_AuClO2
_symmetry_space_group_name_H-M   'P 1'
_cell_length_a   6.69193512
_cell_length_b   6.69193512
_cell_length_c   4.12679425
_cell_angle_alpha   90.00000000
_cell_angle_beta   90.00000000
_cell_angle_gamma   113.49520214
_symmetry_Int_Tables_number   1
_chemical_formula_structural   AuClO2
_chemical_formula_sum   'Au2 Cl2 O4'
_cell_volume   169.48444959
_cell_formula_units_Z   2
loop_
 _symmetry_equiv_pos_site_id
 _symmetry_equiv_pos_as_xyz
  1  'x, y, z'
loop_
 _atom_site_type_symbol
 _atom_site_label
 _atom_site_symmetry_multiplicity
 _atom_site_fract_x
 _atom_site_fract_y
 _atom_site_fract_z
 _atom_site_occupancy
  Au  Au0  1  0.267559  0.267559  0.500000  1
  Au  Au1  1  0.732441  0.732441  0.000000  1
  Cl  Cl2  1  0.374741  0.625259  0.250000  1
  Cl  Cl3  1  0.625259  0.374741  0.750000  1
  O  O4  1  0.012289  0.811924  0.714481  1
  O  O5  1  0.987711  0.188076  0.214481  1
  O  O6  1  0.811924  0.012289  0.285519  1
  O  O7  1  0.188076  0.987711  0.785519  1
