# generated using pymatgen
data_CuHO2
_symmetry_space_group_name_H-M   'P 1'
_cell_length_a   2.78873302
_cell_length_b   4.41104772
_cell_length_c   5.96742139
_cell_angle_alpha   90.00000000
_cell_angle_beta   90.00000000
_cell_angle_gamma   90.00000000
_symmetry_Int_Tables_number   1
_chemical_formula_structural   CuHO2
_chemical_formula_sum   'Cu2 H2 O4'
_cell_volume   73.40664946
_cell_formula_units_Z   2
loop_
 _symmetry_equiv_pos_site_id
 _symmetry_equiv_pos_as_xyz
  1  'x, y, z'
loop_
 _atom_site_type_symbol
 _atom_site_label
 _atom_site_symmetry_multiplicity
 _atom_site_fract_x
 _atom_site_fract_y
 _atom_site_fract_z
 _atom_site_occupancy
  Cu  Cu0  1  0.500000  0.786368  0.764038  1
  Cu  Cu1  1  0.000000  0.286368  0.235962  1
  H  H2  1  0.000000  0.326340  0.743557  1
  H  H3  1  0.500000  0.826340  0.256443  1
  O  O4  1  0.500000  0.039301  0.340733  1
  O  O5  1  0.000000  0.539301  0.659267  1
  O  O6  1  0.500000  0.534381  0.144944  1
  O  O7  1  0.000000  0.034381  0.855056  1
