# generated using pymatgen
data_Dy5Ni2Sb
_symmetry_space_group_name_H-M   'P 1'
_cell_length_a   8.59493983
_cell_length_b   8.59493983
_cell_length_c   8.59493983
_cell_angle_alpha   127.38732803
_cell_angle_beta   127.38732803
_cell_angle_gamma   77.61965619
_symmetry_Int_Tables_number   1
_chemical_formula_structural   Dy5Ni2Sb
_chemical_formula_sum   'Dy10 Ni4 Sb2'
_cell_volume   388.68321233
_cell_formula_units_Z   2
loop_
 _symmetry_equiv_pos_site_id
 _symmetry_equiv_pos_as_xyz
  1  'x, y, z'
loop_
 _atom_site_type_symbol
 _atom_site_label
 _atom_site_symmetry_multiplicity
 _atom_site_fract_x
 _atom_site_fract_y
 _atom_site_fract_z
 _atom_site_occupancy
  Dy  Dy0  1  0.019508  0.206342  0.500000  1
  Dy  Dy1  1  0.519508  0.019508  0.813166  1
  Dy  Dy2  1  0.206342  0.706342  0.186834  1
  Dy  Dy3  1  0.480492  0.980492  0.186834  1
  Dy  Dy4  1  0.706342  0.519508  0.500000  1
  Dy  Dy5  1  0.980492  0.793658  0.500000  1
  Dy  Dy6  1  0.293658  0.480492  0.500000  1
  Dy  Dy7  1  0.793658  0.293658  0.813166  1
  Dy  Dy8  1  0.500000  0.500000  0.000000  1
  Dy  Dy9  1  0.000000  0.000000  0.000000  1
  Ni  Ni10  1  0.868565  0.368566  0.237131  1
  Ni  Ni11  1  0.368565  0.131434  0.500000  1
  Ni  Ni12  1  0.131434  0.631434  0.762869  1
  Ni  Ni13  1  0.631434  0.868565  0.500000  1
  Sb  Sb14  1  0.250000  0.250000  0.000000  1
  Sb  Sb15  1  0.750000  0.750000  0.000000  1
