# generated using pymatgen
data_Ba3(AlSi)2
_symmetry_space_group_name_H-M   'P 1'
_cell_length_a   10.58827804
_cell_length_b   10.58827804
_cell_length_c   10.58827804
_cell_angle_alpha   156.49565591
_cell_angle_beta   151.94135797
_cell_angle_gamma   36.91795463
_symmetry_Int_Tables_number   1
_chemical_formula_structural   Ba3(AlSi)2
_chemical_formula_sum   'Ba3 Al2 Si2'
_cell_volume   222.38632198
_cell_formula_units_Z   1
loop_
 _symmetry_equiv_pos_site_id
 _symmetry_equiv_pos_as_xyz
  1  'x, y, z'
loop_
 _atom_site_type_symbol
 _atom_site_label
 _atom_site_symmetry_multiplicity
 _atom_site_fract_x
 _atom_site_fract_y
 _atom_site_fract_z
 _atom_site_occupancy
  Ba  Ba0  1  0.000000  0.000000  0.000000  1
  Ba  Ba1  1  0.815361  0.315361  0.500000  1
  Ba  Ba2  1  0.184639  0.684639  0.500000  1
  Al  Al3  1  0.565013  0.565013  0.000000  1
  Al  Al4  1  0.434987  0.434987  0.000000  1
  Si  Si5  1  0.633246  0.133246  0.500000  1
  Si  Si6  1  0.366754  0.866754  0.500000  1
