# generated using pymatgen
data_Ni3H
_symmetry_space_group_name_H-M   'P 1'
_cell_length_a   4.96215924
_cell_length_b   4.96215924
_cell_length_c   3.56633208
_cell_angle_alpha   90.00000000
_cell_angle_beta   90.00000000
_cell_angle_gamma   120.00000000
_symmetry_Int_Tables_number   1
_chemical_formula_structural   Ni3H
_chemical_formula_sum   'Ni6 H2'
_cell_volume   76.04905225
_cell_formula_units_Z   2
loop_
 _symmetry_equiv_pos_site_id
 _symmetry_equiv_pos_as_xyz
  1  'x, y, z'
loop_
 _atom_site_type_symbol
 _atom_site_label
 _atom_site_symmetry_multiplicity
 _atom_site_fract_x
 _atom_site_fract_y
 _atom_site_fract_z
 _atom_site_occupancy
  Ni  Ni0  1  0.647838  0.823919  0.750000  1
  Ni  Ni1  1  0.176081  0.352162  0.750000  1
  Ni  Ni2  1  0.176081  0.823919  0.750000  1
  Ni  Ni3  1  0.352162  0.176081  0.250000  1
  Ni  Ni4  1  0.823919  0.647838  0.250000  1
  Ni  Ni5  1  0.823919  0.176081  0.250000  1
  H  H6  1  0.333333  0.666667  0.250000  1
  H  H7  1  0.666667  0.333333  0.750000  1
