# generated using pymatgen
data_ScAlCO
_symmetry_space_group_name_H-M   'P 1'
_cell_length_a   10.27069912
_cell_length_b   10.27069912
_cell_length_c   10.27069912
_cell_angle_alpha   18.42147968
_cell_angle_beta   18.42147968
_cell_angle_gamma   18.42147968
_symmetry_Int_Tables_number   1
_chemical_formula_structural   ScAlCO
_chemical_formula_sum   'Sc2 Al2 C2 O2'
_cell_volume   94.50227260
_cell_formula_units_Z   2
loop_
 _symmetry_equiv_pos_site_id
 _symmetry_equiv_pos_as_xyz
  1  'x, y, z'
loop_
 _atom_site_type_symbol
 _atom_site_label
 _atom_site_symmetry_multiplicity
 _atom_site_fract_x
 _atom_site_fract_y
 _atom_site_fract_z
 _atom_site_occupancy
  Sc  Sc0  1  0.000000  0.000000  0.000000  1
  Sc  Sc1  1  0.500000  0.500000  0.500000  1
  Al  Al2  1  0.261379  0.261379  0.261379  1
  Al  Al3  1  0.738621  0.738621  0.738621  1
  C  C4  1  0.381559  0.381559  0.381559  1
  C  C5  1  0.618441  0.618441  0.618441  1
  O  O6  1  0.799943  0.799943  0.799943  1
  O  O7  1  0.200057  0.200057  0.200057  1
