# generated using pymatgen
data_Tb3FeB7
_symmetry_space_group_name_H-M   'P 1'
_cell_length_a   8.07178820
_cell_length_b   8.07178820
_cell_length_c   9.34775448
_cell_angle_alpha   90.00000000
_cell_angle_beta   90.00000000
_cell_angle_gamma   155.41530690
_symmetry_Int_Tables_number   1
_chemical_formula_structural   Tb3FeB7
_chemical_formula_sum   'Tb6 Fe2 B14'
_cell_volume   253.38428506
_cell_formula_units_Z   2
loop_
 _symmetry_equiv_pos_site_id
 _symmetry_equiv_pos_as_xyz
  1  'x, y, z'
loop_
 _atom_site_type_symbol
 _atom_site_label
 _atom_site_symmetry_multiplicity
 _atom_site_fract_x
 _atom_site_fract_y
 _atom_site_fract_z
 _atom_site_occupancy
  Tb  Tb0  1  0.104701  0.895299  0.939756  1
  Tb  Tb1  1  0.895299  0.104701  0.439756  1
  Tb  Tb2  1  0.895299  0.104701  0.060244  1
  Tb  Tb3  1  0.104701  0.895299  0.560244  1
  Tb  Tb4  1  0.756960  0.243040  0.750000  1
  Tb  Tb5  1  0.243040  0.756960  0.250000  1
  Fe  Fe6  1  0.945156  0.054844  0.750000  1
  Fe  Fe7  1  0.054844  0.945156  0.250000  1
  B  B8  1  0.538965  0.461035  0.750000  1
  B  B9  1  0.461035  0.538965  0.250000  1
  B  B10  1  0.272547  0.727453  0.967470  1
  B  B11  1  0.727453  0.272547  0.467470  1
  B  B12  1  0.727453  0.272547  0.032530  1
  B  B13  1  0.272547  0.727453  0.532530  1
  B  B14  1  0.370100  0.629900  0.653278  1
  B  B15  1  0.629900  0.370100  0.153278  1
  B  B16  1  0.629900  0.370100  0.346722  1
  B  B17  1  0.370100  0.629900  0.846722  1
  B  B18  1  0.477662  0.522338  0.599514  1
  B  B19  1  0.522338  0.477662  0.099514  1
  B  B20  1  0.522338  0.477662  0.400486  1
  B  B21  1  0.477662  0.522338  0.900486  1
