# generated using pymatgen
data_Ce2CrN3
_symmetry_space_group_name_H-M   'P 1'
_cell_length_a   6.79330241
_cell_length_b   6.79330241
_cell_length_c   6.79330241
_cell_angle_alpha   150.47019073
_cell_angle_beta   148.03161078
_cell_angle_gamma   44.07418979
_symmetry_Int_Tables_number   1
_chemical_formula_structural   Ce2CrN3
_chemical_formula_sum   'Ce2 Cr1 N3'
_cell_volume   81.57660931
_cell_formula_units_Z   1
loop_
 _symmetry_equiv_pos_site_id
 _symmetry_equiv_pos_as_xyz
  1  'x, y, z'
loop_
 _atom_site_type_symbol
 _atom_site_label
 _atom_site_symmetry_multiplicity
 _atom_site_fract_x
 _atom_site_fract_y
 _atom_site_fract_z
 _atom_site_occupancy
  Ce  Ce0  1  0.647062  0.647062  0.000000  1
  Ce  Ce1  1  0.352938  0.352938  0.000000  1
  Cr  Cr2  1  0.000000  0.000000  0.000000  1
  N  N3  1  0.836231  0.836231  0.000000  1
  N  N4  1  0.163769  0.163769  0.000000  1
  N  N5  1  0.500000  0.000000  0.500000  1
