# generated using pymatgen
data_CO
_symmetry_space_group_name_H-M   'P 1'
_cell_length_a   2.55730388
_cell_length_b   4.34752461
_cell_length_c   7.71363284
_cell_angle_alpha   90.00000000
_cell_angle_beta   90.00000000
_cell_angle_gamma   90.00000000
_symmetry_Int_Tables_number   1
_chemical_formula_structural   CO
_chemical_formula_sum   'C4 O4'
_cell_volume   85.75971908
_cell_formula_units_Z   4
loop_
 _symmetry_equiv_pos_site_id
 _symmetry_equiv_pos_as_xyz
  1  'x, y, z'
loop_
 _atom_site_type_symbol
 _atom_site_label
 _atom_site_symmetry_multiplicity
 _atom_site_fract_x
 _atom_site_fract_y
 _atom_site_fract_z
 _atom_site_occupancy
  C  C0  1  0.750000  0.075725  0.034734  1
  C  C1  1  0.250000  0.575725  0.465266  1
  C  C2  1  0.250000  0.924275  0.965266  1
  C  C3  1  0.750000  0.424275  0.534734  1
  O  O4  1  0.750000  0.292821  0.134911  1
  O  O5  1  0.250000  0.792821  0.365089  1
  O  O6  1  0.250000  0.707179  0.865089  1
  O  O7  1  0.750000  0.207179  0.634911  1
