# generated using pymatgen
data_Si4MoPt3
_symmetry_space_group_name_H-M   'P 1'
_cell_length_a   3.52081867
_cell_length_b   5.56264732
_cell_length_c   24.57711547
_cell_angle_alpha   90.00000000
_cell_angle_beta   90.00000000
_cell_angle_gamma   90.00000000
_symmetry_Int_Tables_number   1
_chemical_formula_structural   Si4MoPt3
_chemical_formula_sum   'Si16 Mo4 Pt12'
_cell_volume   481.34458928
_cell_formula_units_Z   4
loop_
 _symmetry_equiv_pos_site_id
 _symmetry_equiv_pos_as_xyz
  1  'x, y, z'
loop_
 _atom_site_type_symbol
 _atom_site_label
 _atom_site_symmetry_multiplicity
 _atom_site_fract_x
 _atom_site_fract_y
 _atom_site_fract_z
 _atom_site_occupancy
  Si  Si0  1  0.250000  0.321170  0.019600  1
  Si  Si1  1  0.750000  0.178830  0.519600  1
  Si  Si2  1  0.250000  0.821170  0.480400  1
  Si  Si3  1  0.750000  0.678830  0.980400  1
  Si  Si4  1  0.750000  0.179930  0.145814  1
  Si  Si5  1  0.250000  0.320070  0.645814  1
  Si  Si6  1  0.750000  0.679930  0.354186  1
  Si  Si7  1  0.250000  0.820070  0.854186  1
  Si  Si8  1  0.250000  0.839887  0.109774  1
  Si  Si9  1  0.750000  0.660113  0.609774  1
  Si  Si10  1  0.250000  0.339887  0.390226  1
  Si  Si11  1  0.750000  0.160113  0.890226  1
  Si  Si12  1  0.750000  0.669139  0.226195  1
  Si  Si13  1  0.250000  0.830861  0.726195  1
  Si  Si14  1  0.750000  0.169139  0.273805  1
  Si  Si15  1  0.250000  0.330861  0.773805  1
  Mo  Mo16  1  0.250000  0.995572  0.210011  1
  Mo  Mo17  1  0.750000  0.504428  0.710011  1
  Mo  Mo18  1  0.250000  0.495572  0.289989  1
  Mo  Mo19  1  0.750000  0.004428  0.789989  1
  Pt  Pt20  1  0.750000  0.499127  0.074681  1
  Pt  Pt21  1  0.250000  0.000873  0.574681  1
  Pt  Pt22  1  0.750000  0.999127  0.425319  1
  Pt  Pt23  1  0.250000  0.500873  0.925319  1
  Pt  Pt24  1  0.250000  0.496539  0.170126  1
  Pt  Pt25  1  0.750000  0.003461  0.670126  1
  Pt  Pt26  1  0.250000  0.996539  0.329874  1
  Pt  Pt27  1  0.750000  0.503461  0.829874  1
  Pt  Pt28  1  0.750000  0.998435  0.048179  1
  Pt  Pt29  1  0.250000  0.501565  0.548179  1
  Pt  Pt30  1  0.750000  0.498435  0.451821  1
  Pt  Pt31  1  0.250000  0.001565  0.951821  1
