# generated using pymatgen
data_Na3DyCl6
_symmetry_space_group_name_H-M   'P 1'
_cell_length_a   6.85566980
_cell_length_b   7.34579751
_cell_length_c   12.30777305
_cell_angle_alpha   90.00000000
_cell_angle_beta   122.79325926
_cell_angle_gamma   90.00000000
_symmetry_Int_Tables_number   1
_chemical_formula_structural   Na3DyCl6
_chemical_formula_sum   'Na6 Dy2 Cl12'
_cell_volume   521.04277536
_cell_formula_units_Z   2
loop_
 _symmetry_equiv_pos_site_id
 _symmetry_equiv_pos_as_xyz
  1  'x, y, z'
loop_
 _atom_site_type_symbol
 _atom_site_label
 _atom_site_symmetry_multiplicity
 _atom_site_fract_x
 _atom_site_fract_y
 _atom_site_fract_z
 _atom_site_occupancy
  Na  Na0  1  0.705246  0.904906  0.244456  1
  Na  Na1  1  0.294754  0.404906  0.255544  1
  Na  Na2  1  0.294754  0.095094  0.755544  1
  Na  Na3  1  0.705246  0.595094  0.744456  1
  Na  Na4  1  0.500000  0.000000  0.500000  1
  Na  Na5  1  0.500000  0.500000  0.000000  1
  Dy  Dy6  1  0.000000  0.000000  0.000000  1
  Dy  Dy7  1  0.000000  0.500000  0.500000  1
  Cl  Cl8  1  0.907298  0.558060  0.262851  1
  Cl  Cl9  1  0.092702  0.058060  0.237149  1
  Cl  Cl10  1  0.907298  0.941940  0.762851  1
  Cl  Cl11  1  0.092702  0.441940  0.737149  1
  Cl  Cl12  1  0.387188  0.177098  0.071941  1
  Cl  Cl13  1  0.612812  0.677098  0.428059  1
  Cl  Cl14  1  0.612812  0.822902  0.928059  1
  Cl  Cl15  1  0.387188  0.322902  0.571941  1
  Cl  Cl16  1  0.756246  0.306965  0.922981  1
  Cl  Cl17  1  0.243754  0.806965  0.577019  1
  Cl  Cl18  1  0.243754  0.693035  0.077019  1
  Cl  Cl19  1  0.756246  0.193035  0.422981  1
