# generated using pymatgen
data_GeClF
_symmetry_space_group_name_H-M   'P 1'
_cell_length_a   3.76541684
_cell_length_b   3.76541684
_cell_length_c   7.28294371
_cell_angle_alpha   90.00000000
_cell_angle_beta   90.00000000
_cell_angle_gamma   90.00000000
_symmetry_Int_Tables_number   1
_chemical_formula_structural   GeClF
_chemical_formula_sum   'Ge2 Cl2 F2'
_cell_volume   103.26022676
_cell_formula_units_Z   2
loop_
 _symmetry_equiv_pos_site_id
 _symmetry_equiv_pos_as_xyz
  1  'x, y, z'
loop_
 _atom_site_type_symbol
 _atom_site_label
 _atom_site_symmetry_multiplicity
 _atom_site_fract_x
 _atom_site_fract_y
 _atom_site_fract_z
 _atom_site_occupancy
  Ge  Ge0  1  0.000000  0.500000  0.803114  1
  Ge  Ge1  1  0.500000  0.000000  0.196886  1
  Cl  Cl2  1  0.500000  0.000000  0.652354  1
  Cl  Cl3  1  0.000000  0.500000  0.347646  1
  F  F4  1  0.500000  0.500000  0.000000  1
  F  F5  1  0.000000  0.000000  0.000000  1
