# generated using pymatgen
data_Y3SbO7
_symmetry_space_group_name_H-M   'P 1'
_cell_length_a   6.49247204
_cell_length_b   6.49247204
_cell_length_c   7.54845483
_cell_angle_alpha   90.00000000
_cell_angle_beta   90.00000000
_cell_angle_gamma   109.50567476
_symmetry_Int_Tables_number   1
_chemical_formula_structural   Y3SbO7
_chemical_formula_sum   'Y6 Sb2 O14'
_cell_volume   299.92284969
_cell_formula_units_Z   2
loop_
 _symmetry_equiv_pos_site_id
 _symmetry_equiv_pos_as_xyz
  1  'x, y, z'
loop_
 _atom_site_type_symbol
 _atom_site_label
 _atom_site_symmetry_multiplicity
 _atom_site_fract_x
 _atom_site_fract_y
 _atom_site_fract_z
 _atom_site_occupancy
  Y  Y0  1  0.500000  0.500000  1.000000  1
  Y  Y1  1  0.500000  0.500000  0.500000  1
  Y  Y2  1  0.999786  0.468322  0.750000  1
  Y  Y3  1  0.000214  0.531678  0.250000  1
  Y  Y4  1  0.531678  0.000214  0.750000  1
  Y  Y5  1  0.468322  0.999786  0.250000  1
  Sb  Sb6  1  0.000000  0.000000  0.000000  1
  Sb  Sb7  1  0.000000  0.000000  0.500000  1
  O  O8  1  0.636815  0.363185  0.750000  1
  O  O9  1  0.363185  0.636815  0.250000  1
  O  O10  1  0.369588  0.630412  0.750000  1
  O  O11  1  0.630412  0.369588  0.250000  1
  O  O12  1  0.930242  0.069758  0.750000  1
  O  O13  1  0.069758  0.930242  0.250000  1
  O  O14  1  0.072858  0.322011  0.029758  1
  O  O15  1  0.927142  0.677989  0.529758  1
  O  O16  1  0.677989  0.927142  0.470242  1
  O  O17  1  0.322011  0.072858  0.970242  1
  O  O18  1  0.927142  0.677989  0.970242  1
  O  O19  1  0.072858  0.322011  0.470242  1
  O  O20  1  0.322011  0.072858  0.529758  1
  O  O21  1  0.677989  0.927142  0.029758  1
