# generated using pymatgen
data_Sr2MgUO6
_symmetry_space_group_name_H-M   'P 1'
_cell_length_a   5.85147100
_cell_length_b   5.87601375
_cell_length_c   10.09713553
_cell_angle_alpha   90.00000000
_cell_angle_beta   125.10607055
_cell_angle_gamma   90.00000000
_symmetry_Int_Tables_number   1
_chemical_formula_structural   Sr2MgUO6
_chemical_formula_sum   'Sr4 Mg2 U2 O12'
_cell_volume   284.01840742
_cell_formula_units_Z   2
loop_
 _symmetry_equiv_pos_site_id
 _symmetry_equiv_pos_as_xyz
  1  'x, y, z'
loop_
 _atom_site_type_symbol
 _atom_site_label
 _atom_site_symmetry_multiplicity
 _atom_site_fract_x
 _atom_site_fract_y
 _atom_site_fract_z
 _atom_site_occupancy
  Sr  Sr0  1  0.738623  0.531674  0.247793  1
  Sr  Sr1  1  0.261377  0.031674  0.252207  1
  Sr  Sr2  1  0.738623  0.968326  0.747793  1
  Sr  Sr3  1  0.261377  0.468326  0.752207  1
  Mg  Mg4  1  0.500000  0.000000  0.000000  1
  Mg  Mg5  1  0.500000  0.500000  0.500000  1
  U  U6  1  0.000000  0.500000  0.000000  1
  U  U7  1  0.000000  0.000000  0.500000  1
  O  O8  1  0.740955  0.220972  0.956089  1
  O  O9  1  0.320343  0.284943  0.040166  1
  O  O10  1  0.259045  0.779028  0.043911  1
  O  O11  1  0.167601  0.480997  0.246952  1
  O  O12  1  0.832399  0.980997  0.253048  1
  O  O13  1  0.740955  0.279028  0.456089  1
  O  O14  1  0.679657  0.784943  0.459834  1
  O  O15  1  0.320343  0.215057  0.540166  1
  O  O16  1  0.259045  0.720972  0.543911  1
  O  O17  1  0.167601  0.019003  0.746952  1
  O  O18  1  0.832399  0.519003  0.753048  1
  O  O19  1  0.679657  0.715057  0.959834  1
