# generated using pymatgen
data_H5PbCI3N2
_symmetry_space_group_name_H-M   'P 1'
_cell_length_a   6.35237209
_cell_length_b   6.48842998
_cell_length_c   6.50297990
_cell_angle_alpha   90.00000000
_cell_angle_beta   90.00000000
_cell_angle_gamma   90.00000000
_symmetry_Int_Tables_number   1
_chemical_formula_structural   H5PbCI3N2
_chemical_formula_sum   'H5 Pb1 C1 I3 N2'
_cell_volume   268.03281214
_cell_formula_units_Z   1
loop_
 _symmetry_equiv_pos_site_id
 _symmetry_equiv_pos_as_xyz
  1  'x, y, z'
loop_
 _atom_site_type_symbol
 _atom_site_label
 _atom_site_symmetry_multiplicity
 _atom_site_fract_x
 _atom_site_fract_y
 _atom_site_fract_z
 _atom_site_occupancy
  H  H0  1  0.267003  0.500000  0.701353  1
  H  H1  1  0.267003  0.500000  0.298647  1
  H  H2  1  0.692404  0.500000  0.500000  1
  H  H3  1  0.518449  0.500000  0.191249  1
  H  H4  1  0.518449  0.500000  0.808751  1
  Pb  Pb5  1  0.964874  0.000000  0.000000  1
  C  C6  1  0.519831  0.500000  0.500000  1
  I  I7  1  0.983772  0.000000  0.500000  1
  I  I8  1  0.462730  0.000000  0.000000  1
  I  I9  1  0.920583  0.500000  0.000000  1
  N  N10  1  0.426708  0.500000  0.319828  1
  N  N11  1  0.426708  0.500000  0.680172  1
