# generated using pymatgen
data_LuAlB4
_symmetry_space_group_name_H-M   'P 1'
_cell_length_a   5.89290028
_cell_length_b   5.89290028
_cell_length_c   3.50862706
_cell_angle_alpha   90.00000000
_cell_angle_beta   90.00000000
_cell_angle_gamma   103.71956928
_symmetry_Int_Tables_number   1
_chemical_formula_structural   LuAlB4
_chemical_formula_sum   'Lu2 Al2 B8'
_cell_volume   118.36518144
_cell_formula_units_Z   2
loop_
 _symmetry_equiv_pos_site_id
 _symmetry_equiv_pos_as_xyz
  1  'x, y, z'
loop_
 _atom_site_type_symbol
 _atom_site_label
 _atom_site_symmetry_multiplicity
 _atom_site_fract_x
 _atom_site_fract_y
 _atom_site_fract_z
 _atom_site_occupancy
  Lu  Lu0  1  0.800673  0.199327  0.000000  1
  Lu  Lu1  1  0.199327  0.800673  0.000000  1
  Al  Al2  1  0.680919  0.680919  1.000000  1
  Al  Al3  1  0.319081  0.319081  1.000000  1
  B  B4  1  0.563283  0.882739  0.500000  1
  B  B5  1  0.592748  0.407252  0.500000  1
  B  B6  1  0.879047  0.879047  0.500000  1
  B  B7  1  0.882739  0.563283  0.500000  1
  B  B8  1  0.117261  0.436717  0.500000  1
  B  B9  1  0.120953  0.120953  0.500000  1
  B  B10  1  0.407252  0.592748  0.500000  1
  B  B11  1  0.436717  0.117261  0.500000  1
