# generated using pymatgen
data_Li2Sb
_symmetry_space_group_name_H-M   'P 1'
_cell_length_a   7.95140493
_cell_length_b   7.95140493
_cell_length_c   6.56835113
_cell_angle_alpha   90.00000000
_cell_angle_beta   90.00000000
_cell_angle_gamma   120.00000000
_symmetry_Int_Tables_number   1
_chemical_formula_structural   Li2Sb
_chemical_formula_sum   'Li12 Sb6'
_cell_volume   359.64558555
_cell_formula_units_Z   6
loop_
 _symmetry_equiv_pos_site_id
 _symmetry_equiv_pos_as_xyz
  1  'x, y, z'
loop_
 _atom_site_type_symbol
 _atom_site_label
 _atom_site_symmetry_multiplicity
 _atom_site_fract_x
 _atom_site_fract_y
 _atom_site_fract_z
 _atom_site_occupancy
  Li  Li0  1  0.291006  0.000000  0.000000  1
  Li  Li1  1  0.708994  0.708994  0.500000  1
  Li  Li2  1  0.000000  0.291006  0.500000  1
  Li  Li3  1  0.000000  0.291006  0.000000  1
  Li  Li4  1  0.708994  0.708994  0.000000  1
  Li  Li5  1  0.291006  0.000000  0.500000  1
  Li  Li6  1  0.637321  0.009891  0.250000  1
  Li  Li7  1  0.372570  0.362679  0.250000  1
  Li  Li8  1  0.990109  0.627430  0.250000  1
  Li  Li9  1  0.627430  0.990109  0.750000  1
  Li  Li10  1  0.362679  0.372570  0.750000  1
  Li  Li11  1  0.009891  0.637321  0.750000  1
  Sb  Sb12  1  0.000000  0.000000  0.250000  1
  Sb  Sb13  1  0.000000  0.000000  0.750000  1
  Sb  Sb14  1  0.333333  0.666667  0.023772  1
  Sb  Sb15  1  0.333333  0.666667  0.476228  1
  Sb  Sb16  1  0.666667  0.333333  0.976228  1
  Sb  Sb17  1  0.666667  0.333333  0.523772  1
