# generated using pymatgen
data_SnB
_symmetry_space_group_name_H-M   'P 1'
_cell_length_a   3.69565916
_cell_length_b   3.69565916
_cell_length_c   6.36489135
_cell_angle_alpha   90.00000000
_cell_angle_beta   90.00000000
_cell_angle_gamma   120.00000000
_symmetry_Int_Tables_number   1
_chemical_formula_structural   SnB
_chemical_formula_sum   'Sn2 B2'
_cell_volume   75.28447861
_cell_formula_units_Z   2
loop_
 _symmetry_equiv_pos_site_id
 _symmetry_equiv_pos_as_xyz
  1  'x, y, z'
loop_
 _atom_site_type_symbol
 _atom_site_label
 _atom_site_symmetry_multiplicity
 _atom_site_fract_x
 _atom_site_fract_y
 _atom_site_fract_z
 _atom_site_occupancy
  Sn  Sn0  1  0.333333  0.666667  0.365704  1
  Sn  Sn1  1  0.666667  0.333333  0.865704  1
  B  B2  1  0.333333  0.666667  0.009296  1
  B  B3  1  0.666667  0.333333  0.509296  1
