# generated using pymatgen
data_LaOsN3
_symmetry_space_group_name_H-M   'P 1'
_cell_length_a   3.66525739
_cell_length_b   5.70017255
_cell_length_c   6.74748926
_cell_angle_alpha   90.00000000
_cell_angle_beta   90.00000000
_cell_angle_gamma   90.00000000
_symmetry_Int_Tables_number   1
_chemical_formula_structural   LaOsN3
_chemical_formula_sum   'La2 Os2 N6'
_cell_volume   140.97259117
_cell_formula_units_Z   2
loop_
 _symmetry_equiv_pos_site_id
 _symmetry_equiv_pos_as_xyz
  1  'x, y, z'
loop_
 _atom_site_type_symbol
 _atom_site_label
 _atom_site_symmetry_multiplicity
 _atom_site_fract_x
 _atom_site_fract_y
 _atom_site_fract_z
 _atom_site_occupancy
  La  La0  1  0.000000  0.250000  0.207788  1
  La  La1  1  0.000000  0.750000  0.792212  1
  Os  Os2  1  0.500000  0.250000  0.805246  1
  Os  Os3  1  0.500000  0.750000  0.194754  1
  N  N4  1  0.500000  0.992651  0.405753  1
  N  N5  1  0.500000  0.500000  0.000000  1
  N  N6  1  0.500000  0.507349  0.405753  1
  N  N7  1  0.500000  0.007349  0.594247  1
  N  N8  1  0.500000  0.000000  0.000000  1
  N  N9  1  0.500000  0.492651  0.594247  1
