# generated using pymatgen
data_Tm6GaCo2
_symmetry_space_group_name_H-M   'P 1'
_cell_length_a   8.17724644
_cell_length_b   8.17724644
_cell_length_c   8.17724644
_cell_angle_alpha   111.55439746
_cell_angle_beta   110.22135817
_cell_angle_gamma   106.67649560
_symmetry_Int_Tables_number   1
_chemical_formula_structural   Tm6GaCo2
_chemical_formula_sum   'Tm12 Ga2 Co4'
_cell_volume   420.11341995
_cell_formula_units_Z   2
loop_
 _symmetry_equiv_pos_site_id
 _symmetry_equiv_pos_as_xyz
  1  'x, y, z'
loop_
 _atom_site_type_symbol
 _atom_site_label
 _atom_site_symmetry_multiplicity
 _atom_site_fract_x
 _atom_site_fract_y
 _atom_site_fract_z
 _atom_site_occupancy
  Tm  Tm0  1  0.034333  0.735515  0.298818  1
  Tm  Tm1  1  0.183580  0.782053  0.965634  1
  Tm  Tm2  1  0.183580  0.217947  0.401527  1
  Tm  Tm3  1  0.320228  0.515248  0.195020  1
  Tm  Tm4  1  0.320228  0.125208  0.804980  1
  Tm  Tm5  1  0.436697  0.735515  0.701182  1
  Tm  Tm6  1  0.563303  0.264485  0.298818  1
  Tm  Tm7  1  0.679772  0.874792  0.195020  1
  Tm  Tm8  1  0.679772  0.484752  0.804980  1
  Tm  Tm9  1  0.816420  0.782053  0.598473  1
  Tm  Tm10  1  0.816420  0.217947  0.034366  1
  Tm  Tm11  1  0.965667  0.264485  0.701182  1
  Ga  Ga12  1  1.000000  0.500000  0.500000  1
  Ga  Ga13  1  0.500000  1.000000  0.500000  1
  Co  Co14  1  0.114282  0.114282  0.000000  1
  Co  Co15  1  0.364491  0.500000  0.864491  1
  Co  Co16  1  0.635509  0.500000  0.135509  1
  Co  Co17  1  0.885718  0.885718  0.000000  1
