# generated using pymatgen
data_LiAlPdF6
_symmetry_space_group_name_H-M   'P 1'
_cell_length_a   5.07464203
_cell_length_b   5.07464203
_cell_length_c   9.24640266
_cell_angle_alpha   90.00000000
_cell_angle_beta   90.00000000
_cell_angle_gamma   120.00000000
_symmetry_Int_Tables_number   1
_chemical_formula_structural   LiAlPdF6
_chemical_formula_sum   'Li2 Al2 Pd2 F12'
_cell_volume   206.21215401
_cell_formula_units_Z   2
loop_
 _symmetry_equiv_pos_site_id
 _symmetry_equiv_pos_as_xyz
  1  'x, y, z'
loop_
 _atom_site_type_symbol
 _atom_site_label
 _atom_site_symmetry_multiplicity
 _atom_site_fract_x
 _atom_site_fract_y
 _atom_site_fract_z
 _atom_site_occupancy
  Li  Li0  1  0.333333  0.666667  0.250000  1
  Li  Li1  1  0.666667  0.333333  0.750000  1
  Al  Al2  1  0.666667  0.333333  0.250000  1
  Al  Al3  1  0.333333  0.666667  0.750000  1
  Pd  Pd4  1  0.000000  0.000000  0.000000  1
  Pd  Pd5  1  0.000000  0.000000  0.500000  1
  F  F6  1  0.372462  0.343169  0.139052  1
  F  F7  1  0.627538  0.970707  0.639052  1
  F  F8  1  0.029293  0.656831  0.639052  1
  F  F9  1  0.343169  0.372462  0.639052  1
  F  F10  1  0.656831  0.627538  0.360948  1
  F  F11  1  0.656831  0.029293  0.139052  1
  F  F12  1  0.970707  0.627538  0.139052  1
  F  F13  1  0.970707  0.343169  0.360948  1
  F  F14  1  0.343169  0.970707  0.860948  1
  F  F15  1  0.372462  0.029293  0.360948  1
  F  F16  1  0.627538  0.656831  0.860948  1
  F  F17  1  0.029293  0.372462  0.860948  1
