# generated using pymatgen
data_H2CSO4
_symmetry_space_group_name_H-M   'P 1'
_cell_length_a   6.01775978
_cell_length_b   6.01775978
_cell_length_c   7.50615687
_cell_angle_alpha   90.00000000
_cell_angle_beta   90.00000000
_cell_angle_gamma   132.90867924
_symmetry_Int_Tables_number   1
_chemical_formula_structural   H2CSO4
_chemical_formula_sum   'H4 C2 S2 O8'
_cell_volume   199.09449487
_cell_formula_units_Z   2
loop_
 _symmetry_equiv_pos_site_id
 _symmetry_equiv_pos_as_xyz
  1  'x, y, z'
loop_
 _atom_site_type_symbol
 _atom_site_label
 _atom_site_symmetry_multiplicity
 _atom_site_fract_x
 _atom_site_fract_y
 _atom_site_fract_z
 _atom_site_occupancy
  H  H0  1  0.909646  0.780413  0.423949  1
  H  H1  1  0.090354  0.219587  0.923949  1
  H  H2  1  0.780413  0.909646  0.576051  1
  H  H3  1  0.219587  0.090354  0.076051  1
  C  C4  1  0.971543  0.971543  0.500000  1
  C  C5  1  0.028457  0.028457  0.000000  1
  S  S6  1  0.843283  0.156717  0.250000  1
  S  S7  1  0.156717  0.843283  0.750000  1
  O  O8  1  0.779310  0.906821  0.117752  1
  O  O9  1  0.220690  0.093179  0.617752  1
  O  O10  1  0.906821  0.779310  0.882248  1
  O  O11  1  0.093179  0.220690  0.382248  1
  O  O12  1  0.998162  0.433182  0.155773  1
  O  O13  1  0.001838  0.566818  0.655773  1
  O  O14  1  0.433182  0.998162  0.844227  1
  O  O15  1  0.566818  0.001838  0.344227  1
