# generated using pymatgen
data_MnNiP
_symmetry_space_group_name_H-M   'P 1'
_cell_length_a   5.85401086
_cell_length_b   5.85401086
_cell_length_c   3.46400012
_cell_angle_alpha   90.00000000
_cell_angle_beta   90.00000000
_cell_angle_gamma   120.00000000
_symmetry_Int_Tables_number   1
_chemical_formula_structural   MnNiP
_chemical_formula_sum   'Mn3 Ni3 P3'
_cell_volume   102.80531724
_cell_formula_units_Z   3
loop_
 _symmetry_equiv_pos_site_id
 _symmetry_equiv_pos_as_xyz
  1  'x, y, z'
loop_
 _atom_site_type_symbol
 _atom_site_label
 _atom_site_symmetry_multiplicity
 _atom_site_fract_x
 _atom_site_fract_y
 _atom_site_fract_z
 _atom_site_occupancy
  Mn  Mn0  1  0.600394  0.000000  0.000000  1
  Mn  Mn1  1  0.000000  0.600394  0.000000  1
  Mn  Mn2  1  0.399606  0.399606  0.000000  1
  Ni  Ni3  1  0.257630  0.000000  0.500000  1
  Ni  Ni4  1  0.000000  0.257630  0.500000  1
  Ni  Ni5  1  0.742370  0.742370  0.500000  1
  P  P6  1  0.000000  0.000000  0.000000  1
  P  P7  1  0.333333  0.666667  0.500000  1
  P  P8  1  0.666667  0.333333  0.500000  1
