# generated using pymatgen
data_LaSn2Pd
_symmetry_space_group_name_H-M   'P 1'
_cell_length_a   9.89231537
_cell_length_b   9.89231537
_cell_length_c   4.69344366
_cell_angle_alpha   90.00000000
_cell_angle_beta   90.00000000
_cell_angle_gamma   153.33224218
_symmetry_Int_Tables_number   1
_chemical_formula_structural   LaSn2Pd
_chemical_formula_sum   'La2 Sn4 Pd2'
_cell_volume   206.13704167
_cell_formula_units_Z   2
loop_
 _symmetry_equiv_pos_site_id
 _symmetry_equiv_pos_as_xyz
  1  'x, y, z'
loop_
 _atom_site_type_symbol
 _atom_site_label
 _atom_site_symmetry_multiplicity
 _atom_site_fract_x
 _atom_site_fract_y
 _atom_site_fract_z
 _atom_site_occupancy
  La  La0  1  0.892322  0.107678  0.750000  1
  La  La1  1  0.107678  0.892322  0.250000  1
  Sn  Sn2  1  0.252312  0.747688  0.750000  1
  Sn  Sn3  1  0.747688  0.252312  0.250000  1
  Sn  Sn4  1  0.541257  0.458743  0.750000  1
  Sn  Sn5  1  0.458743  0.541256  0.250000  1
  Pd  Pd6  1  0.676333  0.323667  0.750000  1
  Pd  Pd7  1  0.323667  0.676333  0.250000  1
