# generated using pymatgen
data_Li3Nd
_symmetry_space_group_name_H-M   'P 1'
_cell_length_a   5.18586046
_cell_length_b   5.18586046
_cell_length_c   5.18586046
_cell_angle_alpha   60.00000000
_cell_angle_beta   60.00000000
_cell_angle_gamma   60.00000000
_symmetry_Int_Tables_number   1
_chemical_formula_structural   Li3Nd
_chemical_formula_sum   'Li3 Nd1'
_cell_volume   98.61602274
_cell_formula_units_Z   1
loop_
 _symmetry_equiv_pos_site_id
 _symmetry_equiv_pos_as_xyz
  1  'x, y, z'
loop_
 _atom_site_type_symbol
 _atom_site_label
 _atom_site_symmetry_multiplicity
 _atom_site_fract_x
 _atom_site_fract_y
 _atom_site_fract_z
 _atom_site_occupancy
  Li  Li0  1  0.750000  0.750000  0.750000  1
  Li  Li1  1  0.250000  0.250000  0.250000  1
  Li  Li2  1  0.500000  0.500000  0.500000  1
  Nd  Nd3  1  0.000000  0.000000  0.000000  1
