# generated using pymatgen
data_SmZn2
_symmetry_space_group_name_H-M   'P 1'
_cell_length_a   5.74776273
_cell_length_b   5.74776273
_cell_length_c   5.74776273
_cell_angle_alpha   133.27471404
_cell_angle_beta   100.68868474
_cell_angle_gamma   97.41356298
_symmetry_Int_Tables_number   1
_chemical_formula_structural   SmZn2
_chemical_formula_sum   'Sm2 Zn4'
_cell_volume   126.84641373
_cell_formula_units_Z   2
loop_
 _symmetry_equiv_pos_site_id
 _symmetry_equiv_pos_as_xyz
  1  'x, y, z'
loop_
 _atom_site_type_symbol
 _atom_site_label
 _atom_site_symmetry_multiplicity
 _atom_site_fract_x
 _atom_site_fract_y
 _atom_site_fract_z
 _atom_site_occupancy
  Sm  Sm0  1  0.783616  0.533616  0.750000  1
  Sm  Sm1  1  0.216384  0.466384  0.250000  1
  Zn  Zn2  1  0.383362  0.834266  0.049096  1
  Zn  Zn3  1  0.616638  0.165734  0.950904  1
  Zn  Zn4  1  0.785169  0.834266  0.450904  1
  Zn  Zn5  1  0.214831  0.165734  0.549096  1
