# generated using pymatgen
data_ZnHg3
_symmetry_space_group_name_H-M   'P 1'
_cell_length_a   5.92904044
_cell_length_b   5.92904044
_cell_length_c   5.92904044
_cell_angle_alpha   136.57507637
_cell_angle_beta   136.57507637
_cell_angle_gamma   63.09250014
_symmetry_Int_Tables_number   1
_chemical_formula_structural   ZnHg3
_chemical_formula_sum   'Zn1 Hg3'
_cell_volume   97.24053020
_cell_formula_units_Z   1
loop_
 _symmetry_equiv_pos_site_id
 _symmetry_equiv_pos_as_xyz
  1  'x, y, z'
loop_
 _atom_site_type_symbol
 _atom_site_label
 _atom_site_symmetry_multiplicity
 _atom_site_fract_x
 _atom_site_fract_y
 _atom_site_fract_z
 _atom_site_occupancy
  Zn  Zn0  1  0.000000  0.000000  0.000000  1
  Hg  Hg1  1  0.250000  0.750000  0.500000  1
  Hg  Hg2  1  0.750000  0.250000  0.500000  1
  Hg  Hg3  1  0.500000  0.500000  0.000000  1
