# generated using pymatgen
data_Rb(FeAs)2
_symmetry_space_group_name_H-M   'P 1'
_cell_length_a   7.71561839
_cell_length_b   7.71561839
_cell_length_c   7.71561839
_cell_angle_alpha   151.81904583
_cell_angle_beta   151.81904583
_cell_angle_gamma   40.27761472
_symmetry_Int_Tables_number   1
_chemical_formula_structural   Rb(FeAs)2
_chemical_formula_sum   'Rb1 Fe2 As2'
_cell_volume   102.23669068
_cell_formula_units_Z   1
loop_
 _symmetry_equiv_pos_site_id
 _symmetry_equiv_pos_as_xyz
  1  'x, y, z'
loop_
 _atom_site_type_symbol
 _atom_site_label
 _atom_site_symmetry_multiplicity
 _atom_site_fract_x
 _atom_site_fract_y
 _atom_site_fract_z
 _atom_site_occupancy
  Rb  Rb0  1  0.000000  0.000000  0.000000  1
  Fe  Fe1  1  0.250000  0.750000  0.500000  1
  Fe  Fe2  1  0.750000  0.250000  0.500000  1
  As  As3  1  0.346603  0.346603  0.000000  1
  As  As4  1  0.653397  0.653397  0.000000  1
