# generated using pymatgen
data_K3La(AsO4)2
_symmetry_space_group_name_H-M   'P 1'
_cell_length_a   7.68881842
_cell_length_b   5.92727147
_cell_length_c   10.08238515
_cell_angle_alpha   90.00000000
_cell_angle_beta   91.65385049
_cell_angle_gamma   90.00000000
_symmetry_Int_Tables_number   1
_chemical_formula_structural   K3La(AsO4)2
_chemical_formula_sum   'K6 La2 As4 O16'
_cell_volume   459.30032801
_cell_formula_units_Z   2
loop_
 _symmetry_equiv_pos_site_id
 _symmetry_equiv_pos_as_xyz
  1  'x, y, z'
loop_
 _atom_site_type_symbol
 _atom_site_label
 _atom_site_symmetry_multiplicity
 _atom_site_fract_x
 _atom_site_fract_y
 _atom_site_fract_z
 _atom_site_occupancy
  K  K0  1  0.989338  0.509166  0.808782  1
  K  K1  1  0.010662  0.009166  0.191218  1
  K  K2  1  0.140431  0.511228  0.404195  1
  K  K3  1  0.859569  0.011228  0.595805  1
  K  K4  1  0.684665  0.497495  0.082505  1
  K  K5  1  0.315335  0.997495  0.917495  1
  La  La6  1  0.509737  0.992022  0.292499  1
  La  La7  1  0.490263  0.492022  0.707501  1
  As  As8  1  0.746925  0.998048  0.915637  1
  As  As9  1  0.253075  0.498048  0.084363  1
  As  As10  1  0.701813  0.518509  0.426660  1
  As  As11  1  0.298187  0.018509  0.573340  1
  O  O12  1  0.033186  0.486604  0.097872  1
  O  O13  1  0.966814  0.986604  0.902128  1
  O  O14  1  0.516407  0.071920  0.555711  1
  O  O15  1  0.483593  0.571920  0.444289  1
  O  O16  1  0.211991  0.998371  0.413998  1
  O  O17  1  0.788009  0.498371  0.586002  1
  O  O18  1  0.252779  0.776562  0.661759  1
  O  O19  1  0.747221  0.276562  0.338241  1
  O  O20  1  0.217361  0.251526  0.654292  1
  O  O21  1  0.782639  0.751526  0.345708  1
  O  O22  1  0.332836  0.744915  0.155567  1
  O  O23  1  0.667164  0.244915  0.844433  1
  O  O24  1  0.347961  0.271817  0.168505  1
  O  O25  1  0.652039  0.771817  0.831495  1
  O  O26  1  0.319331  0.490427  0.921942  1
  O  O27  1  0.680669  0.990427  0.078058  1
