# generated using pymatgen
data_RbHg2
_symmetry_space_group_name_H-M   'P 1'
_cell_length_a   7.05818820
_cell_length_b   7.05818820
_cell_length_c   7.05818820
_cell_angle_alpha   134.95432740
_cell_angle_beta   104.44035984
_cell_angle_gamma   92.52670318
_symmetry_Int_Tables_number   1
_chemical_formula_structural   RbHg2
_chemical_formula_sum   'Rb2 Hg4'
_cell_volume   228.18600352
_cell_formula_units_Z   2
loop_
 _symmetry_equiv_pos_site_id
 _symmetry_equiv_pos_as_xyz
  1  'x, y, z'
loop_
 _atom_site_type_symbol
 _atom_site_label
 _atom_site_symmetry_multiplicity
 _atom_site_fract_x
 _atom_site_fract_y
 _atom_site_fract_z
 _atom_site_occupancy
  Rb  Rb0  1  0.697616  0.947616  0.250000  1
  Rb  Rb1  1  0.302384  0.052384  0.750000  1
  Hg  Hg2  1  0.273852  0.335329  0.438522  1
  Hg  Hg3  1  0.726148  0.664671  0.561478  1
  Hg  Hg4  1  0.103193  0.664671  0.938522  1
  Hg  Hg5  1  0.896807  0.335329  0.061478  1
