# generated using pymatgen
data_Pr3Cd
_symmetry_space_group_name_H-M   'P 1'
_cell_length_a   6.21059633
_cell_length_b   6.21059633
_cell_length_c   6.21059633
_cell_angle_alpha   132.89858589
_cell_angle_beta   132.89858589
_cell_angle_gamma   68.81345750
_symmetry_Int_Tables_number   1
_chemical_formula_structural   Pr3Cd
_chemical_formula_sum   'Pr3 Cd1'
_cell_volume   126.21291357
_cell_formula_units_Z   1
loop_
 _symmetry_equiv_pos_site_id
 _symmetry_equiv_pos_as_xyz
  1  'x, y, z'
loop_
 _atom_site_type_symbol
 _atom_site_label
 _atom_site_symmetry_multiplicity
 _atom_site_fract_x
 _atom_site_fract_y
 _atom_site_fract_z
 _atom_site_occupancy
  Pr  Pr0  1  0.250000  0.750000  0.500000  1
  Pr  Pr1  1  0.750000  0.250000  0.500000  1
  Pr  Pr2  1  0.500000  0.500000  0.000000  1
  Cd  Cd3  1  0.000000  0.000000  0.000000  1
