# generated using pymatgen
data_LaReN3
_symmetry_space_group_name_H-M   'P 1'
_cell_length_a   7.06315142
_cell_length_b   5.37465401
_cell_length_c   11.27883992
_cell_angle_alpha   90.00000000
_cell_angle_beta   120.81279262
_cell_angle_gamma   90.00000000
_symmetry_Int_Tables_number   1
_chemical_formula_structural   LaReN3
_chemical_formula_sum   'La4 Re4 N12'
_cell_volume   367.72955109
_cell_formula_units_Z   4
loop_
 _symmetry_equiv_pos_site_id
 _symmetry_equiv_pos_as_xyz
  1  'x, y, z'
loop_
 _atom_site_type_symbol
 _atom_site_label
 _atom_site_symmetry_multiplicity
 _atom_site_fract_x
 _atom_site_fract_y
 _atom_site_fract_z
 _atom_site_occupancy
  La  La0  1  0.721469  0.208405  0.833290  1
  La  La1  1  0.278531  0.791595  0.166710  1
  La  La2  1  0.721469  0.291595  0.333290  1
  La  La3  1  0.278531  0.708405  0.666710  1
  Re  Re4  1  0.404761  0.220219  0.991905  1
  Re  Re5  1  0.404761  0.279781  0.491905  1
  Re  Re6  1  0.595239  0.720219  0.508095  1
  Re  Re7  1  0.595239  0.779781  0.008095  1
  N  N8  1  0.862682  0.806233  0.034697  1
  N  N9  1  0.467767  0.020486  0.381776  1
  N  N10  1  0.137318  0.306233  0.465303  1
  N  N11  1  0.412011  0.002004  0.848550  1
  N  N12  1  0.862682  0.693767  0.534697  1
  N  N13  1  0.587989  0.997996  0.151450  1
  N  N14  1  0.587989  0.502004  0.651450  1
  N  N15  1  0.532233  0.979514  0.618224  1
  N  N16  1  0.412011  0.497996  0.348550  1
  N  N17  1  0.137318  0.193767  0.965303  1
  N  N18  1  0.467767  0.479514  0.881776  1
  N  N19  1  0.532233  0.520486  0.118224  1
