# generated using pymatgen
data_Tm2C3
_symmetry_space_group_name_H-M   'P 1'
_cell_length_a   7.00642113
_cell_length_b   7.00642113
_cell_length_c   7.00642113
_cell_angle_alpha   109.47122063
_cell_angle_beta   109.47122063
_cell_angle_gamma   109.47122063
_symmetry_Int_Tables_number   1
_chemical_formula_structural   Tm2C3
_chemical_formula_sum   'Tm8 C12'
_cell_volume   264.76880962
_cell_formula_units_Z   4
loop_
 _symmetry_equiv_pos_site_id
 _symmetry_equiv_pos_as_xyz
  1  'x, y, z'
loop_
 _atom_site_type_symbol
 _atom_site_label
 _atom_site_symmetry_multiplicity
 _atom_site_fract_x
 _atom_site_fract_y
 _atom_site_fract_z
 _atom_site_occupancy
  Tm  Tm0  1  0.600636  0.600636  0.600636  1
  Tm  Tm1  1  0.399364  0.500000  0.000000  1
  Tm  Tm2  1  0.500000  0.000000  0.399364  1
  Tm  Tm3  1  0.000000  0.399364  0.500000  1
  Tm  Tm4  1  0.500000  0.000000  0.899364  1
  Tm  Tm5  1  1.000000  0.899364  0.500000  1
  Tm  Tm6  1  0.899364  0.500000  0.000000  1
  Tm  Tm7  1  0.100636  0.100636  0.100636  1
  C  C8  1  0.750000  0.791980  0.041980  1
  C  C9  1  0.750000  0.958020  0.208020  1
  C  C10  1  0.291980  0.250000  0.541980  1
  C  C11  1  0.541980  0.291980  0.250000  1
  C  C12  1  0.208020  0.750000  0.958020  1
  C  C13  1  0.958020  0.208020  0.750000  1
  C  C14  1  0.250000  0.708020  0.458020  1
  C  C15  1  0.708020  0.458020  0.250000  1
  C  C16  1  0.250000  0.541980  0.291980  1
  C  C17  1  0.458020  0.250000  0.708020  1
  C  C18  1  0.041980  0.750000  0.791980  1
  C  C19  1  0.791980  0.041980  0.750000  1
