# generated using pymatgen
data_KYb(CO3)2
_symmetry_space_group_name_H-M   'P 1'
_cell_length_a   6.52217462
_cell_length_b   6.52217462
_cell_length_c   7.07756310
_cell_angle_alpha   76.91814012
_cell_angle_beta   103.08185988
_cell_angle_gamma   80.94475835
_symmetry_Int_Tables_number   1
_chemical_formula_structural   KYb(CO3)2
_chemical_formula_sum   'K2 Yb2 C4 O12'
_cell_volume   278.65575821
_cell_formula_units_Z   2
loop_
 _symmetry_equiv_pos_site_id
 _symmetry_equiv_pos_as_xyz
  1  'x, y, z'
loop_
 _atom_site_type_symbol
 _atom_site_label
 _atom_site_symmetry_multiplicity
 _atom_site_fract_x
 _atom_site_fract_y
 _atom_site_fract_z
 _atom_site_occupancy
  K  K0  1  0.872169  0.872169  0.250000  1
  K  K1  1  0.127831  0.127831  0.750000  1
  Yb  Yb2  1  0.406120  0.406120  0.250000  1
  Yb  Yb3  1  0.593880  0.593880  0.750000  1
  C  C4  1  0.606008  0.142590  0.748029  1
  C  C5  1  0.142590  0.606008  0.751971  1
  C  C6  1  0.393992  0.857410  0.251971  1
  C  C7  1  0.857410  0.393992  0.248029  1
  O  O8  1  0.053558  0.414292  0.278906  1
  O  O9  1  0.414292  0.053558  0.221094  1
  O  O10  1  0.946442  0.585708  0.721094  1
  O  O11  1  0.585708  0.946442  0.778906  1
  O  O12  1  0.800977  0.245279  0.365694  1
  O  O13  1  0.245279  0.800977  0.134306  1
  O  O14  1  0.199023  0.754721  0.634306  1
  O  O15  1  0.754721  0.199023  0.865694  1
  O  O16  1  0.707132  0.530242  0.099643  1
  O  O17  1  0.530242  0.707132  0.400357  1
  O  O18  1  0.292868  0.469758  0.900357  1
  O  O19  1  0.469758  0.292868  0.599643  1
