# generated using pymatgen
data_BaWN3
_symmetry_space_group_name_H-M   'P 1'
_cell_length_a   7.69912900
_cell_length_b   5.78805000
_cell_length_c   10.44134257
_cell_angle_alpha   90.00000000
_cell_angle_beta   131.64398451
_cell_angle_gamma   90.00000000
_symmetry_Int_Tables_number   1
_chemical_formula_structural   BaWN3
_chemical_formula_sum   'Ba4 W4 N12'
_cell_volume   347.71092359
_cell_formula_units_Z   4
loop_
 _symmetry_equiv_pos_site_id
 _symmetry_equiv_pos_as_xyz
  1  'x, y, z'
loop_
 _atom_site_type_symbol
 _atom_site_label
 _atom_site_symmetry_multiplicity
 _atom_site_fract_x
 _atom_site_fract_y
 _atom_site_fract_z
 _atom_site_occupancy
  Ba  Ba0  1  0.285560  0.259600  0.626580  1
  Ba  Ba1  1  0.714440  0.740400  0.373420  1
  Ba  Ba2  1  0.714440  0.759600  0.873420  1
  Ba  Ba3  1  0.285560  0.240400  0.126580  1
  W  W4  1  0.841250  0.238330  0.637850  1
  W  W5  1  0.841250  0.261670  0.137850  1
  W  W6  1  0.158750  0.738330  0.862150  1
  W  W7  1  0.158750  0.761670  0.362150  1
  N  N8  1  0.124800  0.441070  0.289780  1
  N  N9  1  0.875200  0.558930  0.710220  1
  N  N10  1  0.418320  0.935370  0.430800  1
  N  N11  1  0.418320  0.564630  0.930800  1
  N  N12  1  0.875200  0.941070  0.210220  1
  N  N13  1  0.790610  0.240530  0.943740  1
  N  N14  1  0.581680  0.435370  0.069200  1
  N  N15  1  0.209390  0.759470  0.056260  1
  N  N16  1  0.790610  0.259470  0.443740  1
  N  N17  1  0.581680  0.064630  0.569200  1
  N  N18  1  0.209390  0.740530  0.556260  1
  N  N19  1  0.124800  0.058930  0.789780  1
