# generated using pymatgen
data_YbGe3
_symmetry_space_group_name_H-M   'P 1'
_cell_length_a   6.15410319
_cell_length_b   6.15410319
_cell_length_c   4.98782985
_cell_angle_alpha   90.00000000
_cell_angle_beta   90.00000000
_cell_angle_gamma   120.00000000
_symmetry_Int_Tables_number   1
_chemical_formula_structural   YbGe3
_chemical_formula_sum   'Yb2 Ge6'
_cell_volume   163.59567199
_cell_formula_units_Z   2
loop_
 _symmetry_equiv_pos_site_id
 _symmetry_equiv_pos_as_xyz
  1  'x, y, z'
loop_
 _atom_site_type_symbol
 _atom_site_label
 _atom_site_symmetry_multiplicity
 _atom_site_fract_x
 _atom_site_fract_y
 _atom_site_fract_z
 _atom_site_occupancy
  Yb  Yb0  1  0.333333  0.666667  0.750000  1
  Yb  Yb1  1  0.666667  0.333333  0.250000  1
  Ge  Ge2  1  0.147183  0.294366  0.250000  1
  Ge  Ge3  1  0.705634  0.852817  0.250000  1
  Ge  Ge4  1  0.147183  0.852817  0.250000  1
  Ge  Ge5  1  0.852817  0.705634  0.750000  1
  Ge  Ge6  1  0.294366  0.147183  0.750000  1
  Ge  Ge7  1  0.852817  0.147183  0.750000  1
