# generated using pymatgen
data_LaMoN3
_symmetry_space_group_name_H-M   'P 1'
_cell_length_a   7.44619537
_cell_length_b   7.44619537
_cell_length_c   6.38211780
_cell_angle_alpha   76.47599382
_cell_angle_beta   103.52400618
_cell_angle_gamma   94.24144215
_symmetry_Int_Tables_number   1
_chemical_formula_structural   LaMoN3
_chemical_formula_sum   'La4 Mo4 N12'
_cell_volume   334.44058532
_cell_formula_units_Z   4
loop_
 _symmetry_equiv_pos_site_id
 _symmetry_equiv_pos_as_xyz
  1  'x, y, z'
loop_
 _atom_site_type_symbol
 _atom_site_label
 _atom_site_symmetry_multiplicity
 _atom_site_fract_x
 _atom_site_fract_y
 _atom_site_fract_z
 _atom_site_occupancy
  La  La0  1  0.313431  0.313431  0.750000  1
  La  La1  1  0.907524  0.907524  0.750000  1
  La  La2  1  0.092476  0.092476  0.250000  1
  La  La3  1  0.686569  0.686569  0.250000  1
  Mo  Mo4  1  0.619953  0.201390  0.250326  1
  Mo  Mo5  1  0.380047  0.798610  0.749674  1
  Mo  Mo6  1  0.798610  0.380047  0.750326  1
  Mo  Mo7  1  0.201390  0.619953  0.249674  1
  N  N8  1  0.389721  0.125732  0.145032  1
  N  N9  1  0.001455  0.774609  0.153755  1
  N  N10  1  0.669059  0.368128  0.990312  1
  N  N11  1  0.125732  0.389721  0.354968  1
  N  N12  1  0.874268  0.610279  0.645032  1
  N  N13  1  0.225391  0.998545  0.653755  1
  N  N14  1  0.330941  0.631872  0.009688  1
  N  N15  1  0.774609  0.001455  0.346245  1
  N  N16  1  0.610279  0.874268  0.854968  1
  N  N17  1  0.368128  0.669059  0.509688  1
  N  N18  1  0.998545  0.225391  0.846245  1
  N  N19  1  0.631872  0.330941  0.490312  1
