# generated using pymatgen
data_TlFeSe2
_symmetry_space_group_name_H-M   'P 1'
_cell_length_a   6.97611936
_cell_length_b   6.97611936
_cell_length_c   6.94504738
_cell_angle_alpha   63.91828561
_cell_angle_beta   116.08171439
_cell_angle_gamma   133.59891721
_symmetry_Int_Tables_number   1
_chemical_formula_structural   TlFeSe2
_chemical_formula_sum   'Tl2 Fe2 Se4'
_cell_volume   214.94870821
_cell_formula_units_Z   2
loop_
 _symmetry_equiv_pos_site_id
 _symmetry_equiv_pos_as_xyz
  1  'x, y, z'
loop_
 _atom_site_type_symbol
 _atom_site_label
 _atom_site_symmetry_multiplicity
 _atom_site_fract_x
 _atom_site_fract_y
 _atom_site_fract_z
 _atom_site_occupancy
  Tl  Tl0  1  0.186615  0.813385  0.638523  1
  Tl  Tl1  1  0.813385  0.186615  0.361477  1
  Fe  Fe2  1  0.248507  0.248507  0.000000  1
  Fe  Fe3  1  0.751493  0.751493  0.000000  1
  Se  Se4  1  0.464341  0.535659  0.707326  1
  Se  Se5  1  0.535659  0.464341  0.292674  1
  Se  Se6  1  0.835407  0.164593  0.911868  1
  Se  Se7  1  0.164593  0.835407  0.088132  1
