# generated using pymatgen
data_Zr2Co12P7
_symmetry_space_group_name_H-M   'P 1'
_cell_length_a   8.92238694
_cell_length_b   8.92238694
_cell_length_c   3.56033274
_cell_angle_alpha   90.00000000
_cell_angle_beta   90.00000000
_cell_angle_gamma   120.00000000
_symmetry_Int_Tables_number   1
_chemical_formula_structural   Zr2Co12P7
_chemical_formula_sum   'Zr2 Co12 P7'
_cell_volume   245.46146779
_cell_formula_units_Z   1
loop_
 _symmetry_equiv_pos_site_id
 _symmetry_equiv_pos_as_xyz
  1  'x, y, z'
loop_
 _atom_site_type_symbol
 _atom_site_label
 _atom_site_symmetry_multiplicity
 _atom_site_fract_x
 _atom_site_fract_y
 _atom_site_fract_z
 _atom_site_occupancy
  Zr  Zr0  1  0.333333  0.666667  0.000000  1
  Zr  Zr1  1  0.666667  0.333333  0.500000  1
  Co  Co2  1  0.437848  0.063044  0.000000  1
  Co  Co3  1  0.936956  0.374805  0.000000  1
  Co  Co4  1  0.625195  0.562152  0.000000  1
  Co  Co5  1  0.384875  0.438698  0.500000  1
  Co  Co6  1  0.561302  0.946177  0.500000  1
  Co  Co7  1  0.053823  0.615125  0.500000  1
  Co  Co8  1  0.158235  0.276720  0.000000  1
  Co  Co9  1  0.723280  0.881515  0.000000  1
  Co  Co10  1  0.118485  0.841765  0.000000  1
  Co  Co11  1  0.228672  0.098752  0.500000  1
  Co  Co12  1  0.901248  0.129919  0.500000  1
  Co  Co13  1  0.870081  0.771328  0.500000  1
  P  P14  1  0.115745  0.405248  0.500000  1
  P  P15  1  0.594752  0.710497  0.500000  1
  P  P16  1  0.289503  0.884255  0.500000  1
  P  P17  1  0.000000  0.000000  0.000000  1
  P  P18  1  0.409110  0.291912  0.000000  1
  P  P19  1  0.708088  0.117199  0.000000  1
  P  P20  1  0.882801  0.590890  0.000000  1
