# generated using pymatgen
data_Li4ZrF8
_symmetry_space_group_name_H-M   'P 1'
_cell_length_a   5.75789696
_cell_length_b   9.73840140
_cell_length_c   9.74687883
_cell_angle_alpha   90.00000000
_cell_angle_beta   90.00000000
_cell_angle_gamma   90.00000000
_symmetry_Int_Tables_number   1
_chemical_formula_structural   Li4ZrF8
_chemical_formula_sum   'Li16 Zr4 F32'
_cell_volume   546.53392774
_cell_formula_units_Z   4
loop_
 _symmetry_equiv_pos_site_id
 _symmetry_equiv_pos_as_xyz
  1  'x, y, z'
loop_
 _atom_site_type_symbol
 _atom_site_label
 _atom_site_symmetry_multiplicity
 _atom_site_fract_x
 _atom_site_fract_y
 _atom_site_fract_z
 _atom_site_occupancy
  Li  Li0  1  0.118674  0.369410  0.058482  1
  Li  Li1  1  0.618674  0.130590  0.941518  1
  Li  Li2  1  0.381326  0.869410  0.441518  1
  Li  Li3  1  0.881326  0.630590  0.558482  1
  Li  Li4  1  0.881326  0.630590  0.941518  1
  Li  Li5  1  0.381326  0.869410  0.058482  1
  Li  Li6  1  0.618674  0.130590  0.558482  1
  Li  Li7  1  0.118674  0.369410  0.441518  1
  Li  Li8  1  0.630117  0.397134  0.080866  1
  Li  Li9  1  0.130117  0.102866  0.919134  1
  Li  Li10  1  0.869883  0.897134  0.419134  1
  Li  Li11  1  0.369883  0.602866  0.580866  1
  Li  Li12  1  0.369883  0.602866  0.919134  1
  Li  Li13  1  0.869883  0.897134  0.080866  1
  Li  Li14  1  0.130117  0.102866  0.580866  1
  Li  Li15  1  0.630117  0.397134  0.419134  1
  Zr  Zr16  1  0.370151  0.134423  0.250000  1
  Zr  Zr17  1  0.629849  0.865577  0.750000  1
  Zr  Zr18  1  0.129849  0.634423  0.250000  1
  Zr  Zr19  1  0.870151  0.365577  0.750000  1
  F  F20  1  0.853212  0.980405  0.616279  1
  F  F21  1  0.381290  0.711979  0.750000  1
  F  F22  1  0.881290  0.788021  0.250000  1
  F  F23  1  0.118710  0.211979  0.750000  1
  F  F24  1  0.146788  0.019595  0.116279  1
  F  F25  1  0.646788  0.480405  0.883721  1
  F  F26  1  0.353212  0.519595  0.383721  1
  F  F27  1  0.646788  0.480405  0.616279  1
  F  F28  1  0.853212  0.980405  0.883721  1
  F  F29  1  0.353212  0.519595  0.116279  1
  F  F30  1  0.101737  0.477509  0.621190  1
  F  F31  1  0.146788  0.019595  0.383721  1
  F  F32  1  0.601737  0.022491  0.121190  1
  F  F33  1  0.101737  0.477509  0.878810  1
  F  F34  1  0.898263  0.522491  0.378810  1
  F  F35  1  0.398263  0.977509  0.621190  1
  F  F36  1  0.398263  0.977509  0.878810  1
  F  F37  1  0.898263  0.522491  0.121190  1
  F  F38  1  0.879834  0.714210  0.750000  1
  F  F39  1  0.601737  0.022491  0.378810  1
  F  F40  1  0.371794  0.234335  0.463113  1
  F  F41  1  0.871794  0.265665  0.536887  1
  F  F42  1  0.128206  0.734335  0.036887  1
  F  F43  1  0.628206  0.765665  0.963113  1
  F  F44  1  0.628206  0.765665  0.536887  1
  F  F45  1  0.128206  0.734335  0.463113  1
  F  F46  1  0.871794  0.265665  0.963113  1
  F  F47  1  0.371794  0.234335  0.036887  1
  F  F48  1  0.120166  0.285790  0.250000  1
  F  F49  1  0.620166  0.214210  0.750000  1
  F  F50  1  0.379834  0.785790  0.250000  1
  F  F51  1  0.618710  0.288021  0.250000  1
