# generated using pymatgen
data_K2PAuS4
_symmetry_space_group_name_H-M   'P 1'
_cell_length_a   6.74274694
_cell_length_b   6.88299779
_cell_length_c   9.58434330
_cell_angle_alpha   90.00000000
_cell_angle_beta   93.18310093
_cell_angle_gamma   90.00000000
_symmetry_Int_Tables_number   1
_chemical_formula_structural   K2PAuS4
_chemical_formula_sum   'K4 P2 Au2 S8'
_cell_volume   444.12610265
_cell_formula_units_Z   2
loop_
 _symmetry_equiv_pos_site_id
 _symmetry_equiv_pos_as_xyz
  1  'x, y, z'
loop_
 _atom_site_type_symbol
 _atom_site_label
 _atom_site_symmetry_multiplicity
 _atom_site_fract_x
 _atom_site_fract_y
 _atom_site_fract_z
 _atom_site_occupancy
  K  K0  1  0.480489  0.250000  0.837046  1
  K  K1  1  0.519511  0.750000  0.162954  1
  K  K2  1  0.796589  0.250000  0.460672  1
  K  K3  1  0.203411  0.750000  0.539328  1
  P  P4  1  0.732481  0.750000  0.720092  1
  P  P5  1  0.267519  0.250000  0.279908  1
  Au  Au6  1  0.000000  0.000000  0.000000  1
  Au  Au7  1  0.000000  0.500000  0.000000  1
  S  S8  1  0.304218  0.250000  0.491052  1
  S  S9  1  0.695782  0.750000  0.508948  1
  S  S10  1  0.521228  0.250000  0.176391  1
  S  S11  1  0.478772  0.750000  0.823609  1
  S  S12  1  0.098351  0.500918  0.236384  1
  S  S13  1  0.901649  0.000918  0.763616  1
  S  S14  1  0.098351  0.999082  0.236384  1
  S  S15  1  0.901649  0.499082  0.763616  1
