# generated using pymatgen
data_La(Mg4Al3)4
_symmetry_space_group_name_H-M   'P 1'
_cell_length_a   9.17015269
_cell_length_b   9.17015269
_cell_length_c   9.17015269
_cell_angle_alpha   109.47122063
_cell_angle_beta   109.47122063
_cell_angle_gamma   109.47122063
_symmetry_Int_Tables_number   1
_chemical_formula_structural   La(Mg4Al3)4
_chemical_formula_sum   'La1 Mg16 Al12'
_cell_volume   593.61902379
_cell_formula_units_Z   1
loop_
 _symmetry_equiv_pos_site_id
 _symmetry_equiv_pos_as_xyz
  1  'x, y, z'
loop_
 _atom_site_type_symbol
 _atom_site_label
 _atom_site_symmetry_multiplicity
 _atom_site_fract_x
 _atom_site_fract_y
 _atom_site_fract_z
 _atom_site_occupancy
  La  La0  1  0.000000  0.000000  0.000000  1
  Mg  Mg1  1  0.602076  0.319815  1.000000  1
  Mg  Mg2  1  0.364533  1.000000  1.000000  1
  Mg  Mg3  1  0.319815  0.602076  0.000000  1
  Mg  Mg4  1  0.000000  0.364533  0.000000  1
  Mg  Mg5  1  0.680185  0.680185  0.282261  1
  Mg  Mg6  1  1.000000  0.602076  0.319815  1
  Mg  Mg7  1  0.602076  1.000000  0.319815  1
  Mg  Mg8  1  0.000000  1.000000  0.364533  1
  Mg  Mg9  1  0.717739  0.397924  0.397924  1
  Mg  Mg10  1  0.397924  0.717739  0.397924  1
  Mg  Mg11  1  0.319815  1.000000  0.602076  1
  Mg  Mg12  1  1.000000  0.319815  0.602076  1
  Mg  Mg13  1  0.635467  0.635467  0.635467  1
  Mg  Mg14  1  0.282261  0.680185  0.680185  1
  Mg  Mg15  1  0.680185  0.282261  0.680185  1
  Mg  Mg16  1  0.397924  0.397924  0.717739  1
  Al  Al17  1  0.812078  0.628503  1.000000  1
  Al  Al18  1  0.628503  0.812078  0.000000  1
  Al  Al19  1  0.371497  0.371497  0.183575  1
  Al  Al20  1  0.187922  0.816425  0.187922  1
  Al  Al21  1  0.816425  0.187922  0.187922  1
  Al  Al22  1  0.371497  0.183575  0.371497  1
  Al  Al23  1  0.183575  0.371497  0.371497  1
  Al  Al24  1  0.812078  1.000000  0.628503  1
  Al  Al25  1  1.000000  0.812078  0.628503  1
  Al  Al26  1  0.628503  1.000000  0.812078  1
  Al  Al27  1  0.000000  0.628503  0.812078  1
  Al  Al28  1  0.187922  0.187922  0.816425  1
