# generated using pymatgen
data_CuBiO2
_symmetry_space_group_name_H-M   'P 1'
_cell_length_a   6.15623091
_cell_length_b   3.63533833
_cell_length_c   6.69401886
_cell_angle_alpha   90.00000000
_cell_angle_beta   116.07077276
_cell_angle_gamma   90.00000000
_symmetry_Int_Tables_number   1
_chemical_formula_structural   CuBiO2
_chemical_formula_sum   'Cu2 Bi2 O4'
_cell_volume   134.56893091
_cell_formula_units_Z   2
loop_
 _symmetry_equiv_pos_site_id
 _symmetry_equiv_pos_as_xyz
  1  'x, y, z'
loop_
 _atom_site_type_symbol
 _atom_site_label
 _atom_site_symmetry_multiplicity
 _atom_site_fract_x
 _atom_site_fract_y
 _atom_site_fract_z
 _atom_site_occupancy
  Cu  Cu0  1  0.027478  0.250000  0.668383  1
  Cu  Cu1  1  0.972522  0.750000  0.331617  1
  Bi  Bi2  1  0.432142  0.250000  0.235378  1
  Bi  Bi3  1  0.567858  0.750000  0.764622  1
  O  O4  1  0.360308  0.250000  0.804143  1
  O  O5  1  0.299047  0.750000  0.411233  1
  O  O6  1  0.700953  0.250000  0.588767  1
  O  O7  1  0.639692  0.750000  0.195857  1
