# generated using pymatgen
data_Ac2S3
_symmetry_space_group_name_H-M   'P 1'
_cell_length_a   7.88325074
_cell_length_b   7.88325074
_cell_length_c   7.88325074
_cell_angle_alpha   57.78403811
_cell_angle_beta   57.78403811
_cell_angle_gamma   57.78403811
_symmetry_Int_Tables_number   1
_chemical_formula_structural   Ac2S3
_chemical_formula_sum   'Ac4 S6'
_cell_volume   328.78911989
_cell_formula_units_Z   2
loop_
 _symmetry_equiv_pos_site_id
 _symmetry_equiv_pos_as_xyz
  1  'x, y, z'
loop_
 _atom_site_type_symbol
 _atom_site_label
 _atom_site_symmetry_multiplicity
 _atom_site_fract_x
 _atom_site_fract_y
 _atom_site_fract_z
 _atom_site_occupancy
  Ac  Ac0  1  0.643468  0.643468  0.643468  1
  Ac  Ac1  1  0.856532  0.856532  0.856532  1
  Ac  Ac2  1  0.143468  0.143468  0.143468  1
  Ac  Ac3  1  0.356532  0.356532  0.356532  1
  S  S4  1  0.960867  0.250000  0.539133  1
  S  S5  1  0.539133  0.960867  0.250000  1
  S  S6  1  0.250000  0.539133  0.960867  1
  S  S7  1  0.750000  0.460867  0.039133  1
  S  S8  1  0.460867  0.039133  0.750000  1
  S  S9  1  0.039133  0.750000  0.460867  1
