# generated using pymatgen
data_TaPd
_symmetry_space_group_name_H-M   'P 1'
_cell_length_a   3.32523859
_cell_length_b   3.32523859
_cell_length_c   6.06079772
_cell_angle_alpha   90.00000000
_cell_angle_beta   90.00000000
_cell_angle_gamma   90.00000000
_symmetry_Int_Tables_number   1
_chemical_formula_structural   TaPd
_chemical_formula_sum   'Ta2 Pd2'
_cell_volume   67.01552334
_cell_formula_units_Z   2
loop_
 _symmetry_equiv_pos_site_id
 _symmetry_equiv_pos_as_xyz
  1  'x, y, z'
loop_
 _atom_site_type_symbol
 _atom_site_label
 _atom_site_symmetry_multiplicity
 _atom_site_fract_x
 _atom_site_fract_y
 _atom_site_fract_z
 _atom_site_occupancy
  Ta  Ta0  1  0.000000  0.500000  0.855738  1
  Ta  Ta1  1  0.500000  0.000000  0.144262  1
  Pd  Pd2  1  0.000000  0.500000  0.369137  1
  Pd  Pd3  1  0.500000  0.000000  0.630863  1
