# generated using pymatgen
data_CdAgO2
_symmetry_space_group_name_H-M   'P 1'
_cell_length_a   5.77441804
_cell_length_b   5.77441804
_cell_length_c   3.44813481
_cell_angle_alpha   88.68642455
_cell_angle_beta   91.31357545
_cell_angle_gamma   72.51199317
_symmetry_Int_Tables_number   1
_chemical_formula_structural   CdAgO2
_chemical_formula_sum   'Cd2 Ag2 O4'
_cell_volume   109.57773240
_cell_formula_units_Z   2
loop_
 _symmetry_equiv_pos_site_id
 _symmetry_equiv_pos_as_xyz
  1  'x, y, z'
loop_
 _atom_site_type_symbol
 _atom_site_label
 _atom_site_symmetry_multiplicity
 _atom_site_fract_x
 _atom_site_fract_y
 _atom_site_fract_z
 _atom_site_occupancy
  Cd  Cd0  1  0.500000  1.000000  0.000000  1
  Cd  Cd1  1  0.000000  0.500000  0.000000  1
  Ag  Ag2  1  0.000000  0.000000  0.500000  1
  Ag  Ag3  1  0.500000  0.500000  0.500000  1
  O  O4  1  0.228316  0.228316  0.500000  1
  O  O5  1  0.252263  0.747737  0.869853  1
  O  O6  1  0.771684  0.771684  0.500000  1
  O  O7  1  0.747737  0.252263  0.130147  1
