# generated using pymatgen
data_SrWN3
_symmetry_space_group_name_H-M   'P 1'
_cell_length_a   6.55368011
_cell_length_b   6.55368011
_cell_length_c   6.71311590
_cell_angle_alpha   76.70970825
_cell_angle_beta   103.29029175
_cell_angle_gamma   146.02003035
_symmetry_Int_Tables_number   1
_chemical_formula_structural   SrWN3
_chemical_formula_sum   'Sr2 W2 N6'
_cell_volume   156.42534851
_cell_formula_units_Z   2
loop_
 _symmetry_equiv_pos_site_id
 _symmetry_equiv_pos_as_xyz
  1  'x, y, z'
loop_
 _atom_site_type_symbol
 _atom_site_label
 _atom_site_symmetry_multiplicity
 _atom_site_fract_x
 _atom_site_fract_y
 _atom_site_fract_z
 _atom_site_occupancy
  Sr  Sr0  1  0.617760  0.382240  0.334150  1
  Sr  Sr1  1  0.382240  0.617760  0.665850  1
  W  W2  1  0.846910  0.153090  0.131590  1
  W  W3  1  0.153090  0.846910  0.868410  1
  N  N4  1  0.845620  0.154380  0.398610  1
  N  N5  1  0.001190  0.998810  0.895820  1
  N  N6  1  0.998810  0.001190  0.104180  1
  N  N7  1  0.680650  0.319350  0.977790  1
  N  N8  1  0.319350  0.680650  0.022210  1
  N  N9  1  0.154380  0.845620  0.601390  1
