# generated using pymatgen
data_LiAsO3
_symmetry_space_group_name_H-M   'P 1'
_cell_length_a   5.59387143
_cell_length_b   5.59387143
_cell_length_c   5.59387143
_cell_angle_alpha   51.93151229
_cell_angle_beta   51.93151229
_cell_angle_gamma   51.93151229
_symmetry_Int_Tables_number   1
_chemical_formula_structural   LiAsO3
_chemical_formula_sum   'Li2 As2 O6'
_cell_volume   100.28836935
_cell_formula_units_Z   2
loop_
 _symmetry_equiv_pos_site_id
 _symmetry_equiv_pos_as_xyz
  1  'x, y, z'
loop_
 _atom_site_type_symbol
 _atom_site_label
 _atom_site_symmetry_multiplicity
 _atom_site_fract_x
 _atom_site_fract_y
 _atom_site_fract_z
 _atom_site_occupancy
  Li  Li0  1  0.133308  0.133308  0.133308  1
  Li  Li1  1  0.866692  0.866692  0.866692  1
  As  As2  1  0.338520  0.338520  0.338520  1
  As  As3  1  0.661480  0.661480  0.661480  1
  O  O4  1  0.296645  0.549456  0.935667  1
  O  O5  1  0.935667  0.296645  0.549456  1
  O  O6  1  0.450544  0.064333  0.703355  1
  O  O7  1  0.703355  0.450544  0.064333  1
  O  O8  1  0.064333  0.703355  0.450544  1
  O  O9  1  0.549456  0.935667  0.296645  1
