# generated using pymatgen
data_Li(Mg4Al3)4
_symmetry_space_group_name_H-M   'P 1'
_cell_length_a   9.11072947
_cell_length_b   9.11072947
_cell_length_c   9.11072947
_cell_angle_alpha   109.47122063
_cell_angle_beta   109.47122063
_cell_angle_gamma   109.47122063
_symmetry_Int_Tables_number   1
_chemical_formula_structural   Li(Mg4Al3)4
_chemical_formula_sum   'Li1 Mg16 Al12'
_cell_volume   582.15356604
_cell_formula_units_Z   1
loop_
 _symmetry_equiv_pos_site_id
 _symmetry_equiv_pos_as_xyz
  1  'x, y, z'
loop_
 _atom_site_type_symbol
 _atom_site_label
 _atom_site_symmetry_multiplicity
 _atom_site_fract_x
 _atom_site_fract_y
 _atom_site_fract_z
 _atom_site_occupancy
  Li  Li0  1  0.000000  0.000000  0.000000  1
  Mg  Mg1  1  0.601055  0.315031  0.000000  1
  Mg  Mg2  1  1.000000  0.338384  1.000000  1
  Mg  Mg3  1  0.315031  0.601055  0.000000  1
  Mg  Mg4  1  0.338384  0.000000  0.000000  1
  Mg  Mg5  1  0.684969  0.684969  0.286024  1
  Mg  Mg6  1  1.000000  0.601055  0.315031  1
  Mg  Mg7  1  0.601055  1.000000  0.315031  1
  Mg  Mg8  1  0.000000  0.000000  0.338384  1
  Mg  Mg9  1  0.398945  0.713976  0.398945  1
  Mg  Mg10  1  0.713976  0.398945  0.398945  1
  Mg  Mg11  1  0.315031  1.000000  0.601055  1
  Mg  Mg12  1  1.000000  0.315031  0.601055  1
  Mg  Mg13  1  0.661616  0.661616  0.661616  1
  Mg  Mg14  1  0.286024  0.684969  0.684969  1
  Mg  Mg15  1  0.684969  0.286024  0.684969  1
  Mg  Mg16  1  0.398945  0.398945  0.713976  1
  Al  Al17  1  0.632433  0.813867  0.000000  1
  Al  Al18  1  0.813867  0.632433  0.000000  1
  Al  Al19  1  0.367567  0.367567  0.181433  1
  Al  Al20  1  0.186133  0.818567  0.186133  1
  Al  Al21  1  0.818567  0.186133  0.186133  1
  Al  Al22  1  0.367567  0.181433  0.367567  1
  Al  Al23  1  0.181433  0.367567  0.367567  1
  Al  Al24  1  1.000000  0.813867  0.632433  1
  Al  Al25  1  0.813867  0.000000  0.632433  1
  Al  Al26  1  0.632433  1.000000  0.813867  1
  Al  Al27  1  0.000000  0.632433  0.813867  1
  Al  Al28  1  0.186133  0.186133  0.818567  1
