# generated using pymatgen
data_CuO2F
_symmetry_space_group_name_H-M   'P 1'
_cell_length_a   5.21529818
_cell_length_b   5.21529818
_cell_length_c   3.95810296
_cell_angle_alpha   90.00000000
_cell_angle_beta   90.00000000
_cell_angle_gamma   103.56085869
_symmetry_Int_Tables_number   1
_chemical_formula_structural   CuO2F
_chemical_formula_sum   'Cu2 O4 F2'
_cell_volume   104.65642201
_cell_formula_units_Z   2
loop_
 _symmetry_equiv_pos_site_id
 _symmetry_equiv_pos_as_xyz
  1  'x, y, z'
loop_
 _atom_site_type_symbol
 _atom_site_label
 _atom_site_symmetry_multiplicity
 _atom_site_fract_x
 _atom_site_fract_y
 _atom_site_fract_z
 _atom_site_occupancy
  Cu  Cu0  1  0.716159  0.716159  0.000000  1
  Cu  Cu1  1  0.283841  0.283841  0.500000  1
  O  O2  1  0.786692  0.013906  0.280574  1
  O  O3  1  0.986094  0.213308  0.219426  1
  O  O4  1  0.213308  0.986094  0.780574  1
  O  O5  1  0.013906  0.786692  0.719426  1
  F  F6  1  0.608478  0.391522  0.750000  1
  F  F7  1  0.391522  0.608478  0.250000  1
