# generated using pymatgen
data_La(PdO2)2
_symmetry_space_group_name_H-M   'P 1'
_cell_length_a   6.70778133
_cell_length_b   6.70778133
_cell_length_c   6.70778133
_cell_angle_alpha   126.88190711
_cell_angle_beta   126.88190711
_cell_angle_gamma   78.44343046
_symmetry_Int_Tables_number   1
_chemical_formula_structural   La(PdO2)2
_chemical_formula_sum   'La2 Pd4 O8'
_cell_volume   186.97385873
_cell_formula_units_Z   2
loop_
 _symmetry_equiv_pos_site_id
 _symmetry_equiv_pos_as_xyz
  1  'x, y, z'
loop_
 _atom_site_type_symbol
 _atom_site_label
 _atom_site_symmetry_multiplicity
 _atom_site_fract_x
 _atom_site_fract_y
 _atom_site_fract_z
 _atom_site_occupancy
  La  La0  1  0.250000  0.750000  0.500000  1
  La  La1  1  0.500000  0.500000  0.000000  1
  Pd  Pd2  1  0.875000  0.125000  0.750000  1
  Pd  Pd3  1  0.875000  0.625000  0.750000  1
  Pd  Pd4  1  0.875000  0.125000  0.250000  1
  Pd  Pd5  1  0.375000  0.125000  0.250000  1
  O  O6  1  0.548908  0.905716  0.052013  1
  O  O7  1  0.655716  0.103703  0.856808  1
  O  O8  1  0.246896  0.798908  0.143192  1
  O  O9  1  0.853703  0.496896  0.947987  1
  O  O10  1  0.201092  0.344284  0.447987  1
  O  O11  1  0.094284  0.146297  0.643192  1
  O  O12  1  0.896297  0.753104  0.552013  1
  O  O13  1  0.503104  0.451092  0.356808  1
