# generated using pymatgen
data_CuClO2
_symmetry_space_group_name_H-M   'P 1'
_cell_length_a   6.37249686
_cell_length_b   6.37249686
_cell_length_c   3.78687446
_cell_angle_alpha   90.00000000
_cell_angle_beta   90.00000000
_cell_angle_gamma   113.84239811
_symmetry_Int_Tables_number   1
_chemical_formula_structural   CuClO2
_chemical_formula_sum   'Cu2 Cl2 O4'
_cell_volume   140.65663859
_cell_formula_units_Z   2
loop_
 _symmetry_equiv_pos_site_id
 _symmetry_equiv_pos_as_xyz
  1  'x, y, z'
loop_
 _atom_site_type_symbol
 _atom_site_label
 _atom_site_symmetry_multiplicity
 _atom_site_fract_x
 _atom_site_fract_y
 _atom_site_fract_z
 _atom_site_occupancy
  Cu  Cu0  1  0.272595  0.272595  0.500000  1
  Cu  Cu1  1  0.727405  0.727405  1.000000  1
  Cl  Cl2  1  0.372601  0.627399  0.250000  1
  Cl  Cl3  1  0.627399  0.372601  0.750000  1
  O  O4  1  0.998190  0.816573  0.715438  1
  O  O5  1  0.816573  0.998190  0.284562  1
  O  O6  1  0.183427  0.001810  0.784562  1
  O  O7  1  0.001810  0.183427  0.215438  1
