# generated using pymatgen
data_Sm3Ni7B2
_symmetry_space_group_name_H-M   'P 1'
_cell_length_a   5.15990416
_cell_length_b   5.15990416
_cell_length_c   14.41831431
_cell_angle_alpha   90.00000000
_cell_angle_beta   90.00000000
_cell_angle_gamma   120.00000000
_symmetry_Int_Tables_number   1
_chemical_formula_structural   Sm3Ni7B2
_chemical_formula_sum   'Sm6 Ni14 B4'
_cell_volume   332.45157230
_cell_formula_units_Z   2
loop_
 _symmetry_equiv_pos_site_id
 _symmetry_equiv_pos_as_xyz
  1  'x, y, z'
loop_
 _atom_site_type_symbol
 _atom_site_label
 _atom_site_symmetry_multiplicity
 _atom_site_fract_x
 _atom_site_fract_y
 _atom_site_fract_z
 _atom_site_occupancy
  Sm  Sm0  1  0.333333  0.666667  0.750000  1
  Sm  Sm1  1  0.666667  0.333333  0.250000  1
  Sm  Sm2  1  0.333333  0.666667  0.531334  1
  Sm  Sm3  1  0.666667  0.333333  0.031334  1
  Sm  Sm4  1  0.666667  0.333333  0.468666  1
  Sm  Sm5  1  0.333333  0.666667  0.968666  1
  Ni  Ni6  1  0.000000  0.000000  0.000000  1
  Ni  Ni7  1  0.000000  0.000000  0.500000  1
  Ni  Ni8  1  0.165211  0.330422  0.151058  1
  Ni  Ni9  1  0.834789  0.669578  0.651058  1
  Ni  Ni10  1  0.669578  0.834789  0.151058  1
  Ni  Ni11  1  0.165211  0.834789  0.151058  1
  Ni  Ni12  1  0.834789  0.165211  0.651058  1
  Ni  Ni13  1  0.330422  0.165211  0.651058  1
  Ni  Ni14  1  0.834789  0.669578  0.848942  1
  Ni  Ni15  1  0.834789  0.165211  0.848942  1
  Ni  Ni16  1  0.330422  0.165211  0.848942  1
  Ni  Ni17  1  0.669578  0.834789  0.348942  1
  Ni  Ni18  1  0.165211  0.834789  0.348942  1
  Ni  Ni19  1  0.165211  0.330422  0.348942  1
  B  B20  1  0.333333  0.666667  0.250000  1
  B  B21  1  0.666667  0.333333  0.750000  1
  B  B22  1  0.000000  0.000000  0.250000  1
  B  B23  1  0.000000  0.000000  0.750000  1
