# generated using pymatgen
data_La3Mg
_symmetry_space_group_name_H-M   'P 1'
_cell_length_a   7.33239967
_cell_length_b   7.33239967
_cell_length_c   5.74983048
_cell_angle_alpha   90.00000000
_cell_angle_beta   90.00000000
_cell_angle_gamma   120.00000000
_symmetry_Int_Tables_number   1
_chemical_formula_structural   La3Mg
_chemical_formula_sum   'La6 Mg2'
_cell_volume   267.71822118
_cell_formula_units_Z   2
loop_
 _symmetry_equiv_pos_site_id
 _symmetry_equiv_pos_as_xyz
  1  'x, y, z'
loop_
 _atom_site_type_symbol
 _atom_site_label
 _atom_site_symmetry_multiplicity
 _atom_site_fract_x
 _atom_site_fract_y
 _atom_site_fract_z
 _atom_site_occupancy
  La  La0  1  0.175380  0.350761  0.250000  1
  La  La1  1  0.175380  0.824620  0.250000  1
  La  La2  1  0.649239  0.824620  0.250000  1
  La  La3  1  0.350761  0.175380  0.750000  1
  La  La4  1  0.824620  0.175380  0.750000  1
  La  La5  1  0.824620  0.649239  0.750000  1
  Mg  Mg6  1  0.666667  0.333333  0.250000  1
  Mg  Mg7  1  0.333333  0.666667  0.750000  1
