# generated using pymatgen
data_Na3SbTe3
_symmetry_space_group_name_H-M   'P 1'
_cell_length_a   9.67837338
_cell_length_b   9.67837338
_cell_length_c   9.67837338
_cell_angle_alpha   90.00000000
_cell_angle_beta   90.00000000
_cell_angle_gamma   90.00000000
_symmetry_Int_Tables_number   1
_chemical_formula_structural   Na3SbTe3
_chemical_formula_sum   'Na12 Sb4 Te12'
_cell_volume   906.58205424
_cell_formula_units_Z   4
loop_
 _symmetry_equiv_pos_site_id
 _symmetry_equiv_pos_as_xyz
  1  'x, y, z'
loop_
 _atom_site_type_symbol
 _atom_site_label
 _atom_site_symmetry_multiplicity
 _atom_site_fract_x
 _atom_site_fract_y
 _atom_site_fract_z
 _atom_site_occupancy
  Na  Na0  1  0.589972  0.910028  0.089972  1
  Na  Na1  1  0.182678  0.182678  0.182678  1
  Na  Na2  1  0.317322  0.817322  0.682678  1
  Na  Na3  1  0.682678  0.317322  0.817322  1
  Na  Na4  1  0.910028  0.089972  0.589972  1
  Na  Na5  1  0.089972  0.589972  0.910028  1
  Na  Na6  1  0.410028  0.410028  0.410028  1
  Na  Na7  1  0.327448  0.172552  0.827448  1
  Na  Na8  1  0.172552  0.827448  0.327448  1
  Na  Na9  1  0.827448  0.327448  0.172552  1
  Na  Na10  1  0.672552  0.672552  0.672552  1
  Na  Na11  1  0.817322  0.682678  0.317322  1
  Sb  Sb12  1  0.038726  0.461274  0.538726  1
  Sb  Sb13  1  0.461274  0.538726  0.038726  1
  Sb  Sb14  1  0.961274  0.961274  0.961274  1
  Sb  Sb15  1  0.538726  0.038726  0.461274  1
  Te  Te16  1  0.259589  0.119456  0.502621  1
  Te  Te17  1  0.740411  0.619456  0.997379  1
  Te  Te18  1  0.380544  0.497379  0.759589  1
  Te  Te19  1  0.997379  0.740411  0.619456  1
  Te  Te20  1  0.497379  0.759589  0.380544  1
  Te  Te21  1  0.119456  0.502621  0.259589  1
  Te  Te22  1  0.502621  0.259589  0.119456  1
  Te  Te23  1  0.619456  0.997379  0.740411  1
  Te  Te24  1  0.880544  0.002621  0.240411  1
  Te  Te25  1  0.002621  0.240411  0.880544  1
  Te  Te26  1  0.240411  0.880544  0.002621  1
  Te  Te27  1  0.759589  0.380544  0.497379  1
