# generated using pymatgen
data_Sm5Mg
_symmetry_space_group_name_H-M   'P 1'
_cell_length_a   6.73947769
_cell_length_b   6.73947769
_cell_length_c   6.73947769
_cell_angle_alpha   55.29655966
_cell_angle_beta   55.29655966
_cell_angle_gamma   55.29655966
_symmetry_Int_Tables_number   1
_chemical_formula_structural   Sm5Mg
_chemical_formula_sum   'Sm5 Mg1'
_cell_volume   192.79470847
_cell_formula_units_Z   1
loop_
 _symmetry_equiv_pos_site_id
 _symmetry_equiv_pos_as_xyz
  1  'x, y, z'
loop_
 _atom_site_type_symbol
 _atom_site_label
 _atom_site_symmetry_multiplicity
 _atom_site_fract_x
 _atom_site_fract_y
 _atom_site_fract_z
 _atom_site_occupancy
  Sm  Sm0  1  0.500000  0.154209  0.845791  1
  Sm  Sm1  1  0.845791  0.500000  0.154209  1
  Sm  Sm2  1  0.154209  0.845791  0.500000  1
  Sm  Sm3  1  0.666513  0.666513  0.666513  1
  Sm  Sm4  1  0.333487  0.333487  0.333487  1
  Mg  Mg5  1  0.000000  0.000000  0.000000  1
