# generated using pymatgen
data_Sr2Sn
_symmetry_space_group_name_H-M   'P 1'
_cell_length_a   5.42553829
_cell_length_b   8.39692577
_cell_length_c   10.17450006
_cell_angle_alpha   90.00000000
_cell_angle_beta   90.00000000
_cell_angle_gamma   90.00000000
_symmetry_Int_Tables_number   1
_chemical_formula_structural   Sr2Sn
_chemical_formula_sum   'Sr8 Sn4'
_cell_volume   463.52826905
_cell_formula_units_Z   4
loop_
 _symmetry_equiv_pos_site_id
 _symmetry_equiv_pos_as_xyz
  1  'x, y, z'
loop_
 _atom_site_type_symbol
 _atom_site_label
 _atom_site_symmetry_multiplicity
 _atom_site_fract_x
 _atom_site_fract_y
 _atom_site_fract_z
 _atom_site_occupancy
  Sr  Sr0  1  0.250000  0.479738  0.182144  1
  Sr  Sr1  1  0.750000  0.520262  0.817856  1
  Sr  Sr2  1  0.250000  0.979738  0.317856  1
  Sr  Sr3  1  0.750000  0.020262  0.682144  1
  Sr  Sr4  1  0.750000  0.157731  0.073705  1
  Sr  Sr5  1  0.250000  0.842269  0.926295  1
  Sr  Sr6  1  0.750000  0.657731  0.426295  1
  Sr  Sr7  1  0.250000  0.342269  0.573705  1
  Sn  Sn8  1  0.250000  0.750656  0.605858  1
  Sn  Sn9  1  0.750000  0.249344  0.394142  1
  Sn  Sn10  1  0.250000  0.250656  0.894142  1
  Sn  Sn11  1  0.750000  0.749344  0.105858  1
