# generated using pymatgen
data_InPbCl3
_symmetry_space_group_name_H-M   'P 1'
_cell_length_a   5.75958878
_cell_length_b   5.75958878
_cell_length_c   5.75700126
_cell_angle_alpha   89.83362880
_cell_angle_beta   90.16637120
_cell_angle_gamma   91.14009443
_symmetry_Int_Tables_number   1
_chemical_formula_structural   InPbCl3
_chemical_formula_sum   'In1 Pb1 Cl3'
_cell_volume   190.93682786
_cell_formula_units_Z   1
loop_
 _symmetry_equiv_pos_site_id
 _symmetry_equiv_pos_as_xyz
  1  'x, y, z'
loop_
 _atom_site_type_symbol
 _atom_site_label
 _atom_site_symmetry_multiplicity
 _atom_site_fract_x
 _atom_site_fract_y
 _atom_site_fract_z
 _atom_site_occupancy
  In  In0  1  0.895736  0.104264  0.080818  1
  Pb  Pb1  1  0.498881  0.501119  0.499715  1
  Cl  Cl2  1  0.539531  0.460469  0.001679  1
  Cl  Cl3  1  0.554893  0.998841  0.455036  1
  Cl  Cl4  1  0.001159  0.445107  0.455036  1
