# generated using pymatgen
data_NdAl2Cu9
_symmetry_space_group_name_H-M   'P 1'
_cell_length_a   7.90254921
_cell_length_b   7.90254921
_cell_length_c   7.90254921
_cell_angle_alpha   100.07886154
_cell_angle_beta   100.07886154
_cell_angle_gamma   130.54107474
_symmetry_Int_Tables_number   1
_chemical_formula_structural   NdAl2Cu9
_chemical_formula_sum   'Nd2 Al4 Cu18'
_cell_volume   340.64897996
_cell_formula_units_Z   2
loop_
 _symmetry_equiv_pos_site_id
 _symmetry_equiv_pos_as_xyz
  1  'x, y, z'
loop_
 _atom_site_type_symbol
 _atom_site_label
 _atom_site_symmetry_multiplicity
 _atom_site_fract_x
 _atom_site_fract_y
 _atom_site_fract_z
 _atom_site_occupancy
  Nd  Nd0  1  0.750000  0.250000  0.500000  1
  Nd  Nd1  1  0.500000  0.500000  0.000000  1
  Al  Al2  1  0.125000  0.375000  0.250000  1
  Al  Al3  1  0.125000  0.875000  0.750000  1
  Al  Al4  1  0.625000  0.875000  0.750000  1
  Al  Al5  1  0.125000  0.875000  0.250000  1
  Cu  Cu6  1  0.263387  0.678999  0.829879  1
  Cu  Cu7  1  0.849120  0.433507  0.170121  1
  Cu  Cu8  1  0.400880  0.071001  0.084388  1
  Cu  Cu9  1  0.986613  0.316493  0.915612  1
  Cu  Cu10  1  0.566493  0.150880  0.829879  1
  Cu  Cu11  1  0.321001  0.736613  0.170121  1
  Cu  Cu12  1  0.683507  0.013387  0.084388  1
  Cu  Cu13  1  0.928999  0.599120  0.915612  1
  Cu  Cu14  1  0.986613  0.071001  0.670121  1
  Cu  Cu15  1  0.400880  0.316493  0.329879  1
  Cu  Cu16  1  0.849120  0.678999  0.415612  1
  Cu  Cu17  1  0.263387  0.433507  0.584388  1
  Cu  Cu18  1  0.683507  0.599120  0.670121  1
  Cu  Cu19  1  0.928999  0.013387  0.329879  1
  Cu  Cu20  1  0.566493  0.736613  0.415612  1
  Cu  Cu21  1  0.321001  0.150880  0.584388  1
  Cu  Cu22  1  0.000000  0.000000  0.000000  1
  Cu  Cu23  1  0.250000  0.750000  0.500000  1
