# generated using pymatgen
data_Na(BH)6
_symmetry_space_group_name_H-M   'P 1'
_cell_length_a   6.85677719
_cell_length_b   10.59084482
_cell_length_c   9.34958385
_cell_angle_alpha   90.00000000
_cell_angle_beta   131.55962571
_cell_angle_gamma   90.00000000
_symmetry_Int_Tables_number   1
_chemical_formula_structural   Na(BH)6
_chemical_formula_sum   'Na4 B24 H24'
_cell_volume   508.04103217
_cell_formula_units_Z   4
loop_
 _symmetry_equiv_pos_site_id
 _symmetry_equiv_pos_as_xyz
  1  'x, y, z'
loop_
 _atom_site_type_symbol
 _atom_site_label
 _atom_site_symmetry_multiplicity
 _atom_site_fract_x
 _atom_site_fract_y
 _atom_site_fract_z
 _atom_site_occupancy
  Na  Na0  1  0.887552  0.190441  0.511751  1
  Na  Na1  1  0.112448  0.690441  0.988249  1
  Na  Na2  1  0.112448  0.809559  0.488249  1
  Na  Na3  1  0.887552  0.309559  0.011751  1
  B  B4  1  0.590292  0.348635  0.574466  1
  B  B5  1  0.409708  0.848635  0.925534  1
  B  B6  1  0.409708  0.651365  0.425534  1
  B  B7  1  0.590292  0.151365  0.074466  1
  B  B8  1  0.207289  0.521710  0.279446  1
  B  B9  1  0.792711  0.021710  0.220554  1
  B  B10  1  0.792711  0.478290  0.720554  1
  B  B11  1  0.207289  0.978290  0.779446  1
  B  B12  1  0.261268  0.397318  0.430550  1
  B  B13  1  0.738732  0.897318  0.069450  1
  B  B14  1  0.738732  0.602682  0.569450  1
  B  B15  1  0.261268  0.102682  0.930550  1
  B  B16  1  0.741637  0.442445  0.512777  1
  B  B17  1  0.258363  0.942445  0.987223  1
  B  B18  1  0.258363  0.557555  0.487223  1
  B  B19  1  0.741637  0.057555  0.012777  1
  B  B20  1  0.412377  0.392593  0.332323  1
  B  B21  1  0.587623  0.892593  0.167677  1
  B  B22  1  0.587623  0.607407  0.667677  1
  B  B23  1  0.412377  0.107407  0.832323  1
  B  B24  1  0.504129  0.548740  0.328862  1
  B  B25  1  0.495871  0.048740  0.171138  1
  B  B26  1  0.495871  0.451260  0.671138  1
  B  B27  1  0.504129  0.951260  0.828862  1
  H  H28  1  0.353708  0.316321  0.213976  1
  H  H29  1  0.646292  0.816321  0.286024  1
  H  H30  1  0.646292  0.683679  0.786024  1
  H  H31  1  0.353708  0.183679  0.713976  1
  H  H32  1  0.512606  0.580989  0.209445  1
  H  H33  1  0.487394  0.080989  0.290555  1
  H  H34  1  0.487394  0.419011  0.790555  1
  H  H35  1  0.512606  0.919011  0.709445  1
  H  H36  1  0.916489  0.405229  0.523840  1
  H  H37  1  0.083511  0.905229  0.976160  1
  H  H38  1  0.083511  0.594771  0.476160  1
  H  H39  1  0.916489  0.094771  0.023840  1
  H  H40  1  0.091689  0.324170  0.379564  1
  H  H41  1  0.908311  0.824170  0.120436  1
  H  H42  1  0.908311  0.675830  0.620436  1
  H  H43  1  0.091689  0.175830  0.879564  1
  H  H44  1  0.651772  0.240457  0.626960  1
  H  H45  1  0.348228  0.740457  0.873040  1
  H  H46  1  0.348228  0.759543  0.373040  1
  H  H47  1  0.651772  0.259543  0.126960  1
  H  H48  1  0.994479  0.537928  0.124062  1
  H  H49  1  0.005521  0.037928  0.375938  1
  H  H50  1  0.005521  0.462072  0.875938  1
  H  H51  1  0.994479  0.962072  0.624062  1
