# generated using pymatgen
data_SrPd
_symmetry_space_group_name_H-M   'P 1'
_cell_length_a   6.10746324
_cell_length_b   6.10746324
_cell_length_c   4.55103449
_cell_angle_alpha   90.00000000
_cell_angle_beta   90.00000000
_cell_angle_gamma   139.07801296
_symmetry_Int_Tables_number   1
_chemical_formula_structural   SrPd
_chemical_formula_sum   'Sr2 Pd2'
_cell_volume   111.19713198
_cell_formula_units_Z   2
loop_
 _symmetry_equiv_pos_site_id
 _symmetry_equiv_pos_as_xyz
  1  'x, y, z'
loop_
 _atom_site_type_symbol
 _atom_site_label
 _atom_site_symmetry_multiplicity
 _atom_site_fract_x
 _atom_site_fract_y
 _atom_site_fract_z
 _atom_site_occupancy
  Sr  Sr0  1  0.638924  0.361076  0.250000  1
  Sr  Sr1  1  0.361076  0.638924  0.750000  1
  Pd  Pd2  1  0.927700  0.072300  0.250000  1
  Pd  Pd3  1  0.072300  0.927700  0.750000  1
