# generated using pymatgen
data_MgAuO2
_symmetry_space_group_name_H-M   'P 1'
_cell_length_a   6.35011122
_cell_length_b   6.35011122
_cell_length_c   3.08238892
_cell_angle_alpha   90.00000000
_cell_angle_beta   90.00000000
_cell_angle_gamma   126.17366828
_symmetry_Int_Tables_number   1
_chemical_formula_structural   MgAuO2
_chemical_formula_sum   'Mg2 Au2 O4'
_cell_volume   100.33403603
_cell_formula_units_Z   2
loop_
 _symmetry_equiv_pos_site_id
 _symmetry_equiv_pos_as_xyz
  1  'x, y, z'
loop_
 _atom_site_type_symbol
 _atom_site_label
 _atom_site_symmetry_multiplicity
 _atom_site_fract_x
 _atom_site_fract_y
 _atom_site_fract_z
 _atom_site_occupancy
  Mg  Mg0  1  0.000000  0.500000  0.500000  1
  Mg  Mg1  1  0.500000  0.000000  0.500000  1
  Au  Au2  1  0.000000  0.000000  0.000000  1
  Au  Au3  1  0.500000  0.500000  0.000000  1
  O  O4  1  0.118611  0.881389  0.500000  1
  O  O5  1  0.312419  0.687581  0.000000  1
  O  O6  1  0.881389  0.118611  0.500000  1
  O  O7  1  0.687581  0.312419  0.000000  1
