# generated using pymatgen
data_Yb2C3
_symmetry_space_group_name_H-M   'P 1'
_cell_length_a   7.22919784
_cell_length_b   7.22919784
_cell_length_c   7.22919784
_cell_angle_alpha   109.47122063
_cell_angle_beta   109.47122063
_cell_angle_gamma   109.47122063
_symmetry_Int_Tables_number   1
_chemical_formula_structural   Yb2C3
_chemical_formula_sum   'Yb8 C12'
_cell_volume   290.83618508
_cell_formula_units_Z   4
loop_
 _symmetry_equiv_pos_site_id
 _symmetry_equiv_pos_as_xyz
  1  'x, y, z'
loop_
 _atom_site_type_symbol
 _atom_site_label
 _atom_site_symmetry_multiplicity
 _atom_site_fract_x
 _atom_site_fract_y
 _atom_site_fract_z
 _atom_site_occupancy
  Yb  Yb0  1  0.613105  0.613105  0.613105  1
  Yb  Yb1  1  0.386895  0.500000  1.000000  1
  Yb  Yb2  1  0.500000  1.000000  0.386895  1
  Yb  Yb3  1  1.000000  0.386895  0.500000  1
  Yb  Yb4  1  0.500000  1.000000  0.886895  1
  Yb  Yb5  1  1.000000  0.886895  0.500000  1
  Yb  Yb6  1  0.886895  0.500000  0.000000  1
  Yb  Yb7  1  0.113105  0.113105  0.113105  1
  C  C8  1  0.750000  0.797570  0.047570  1
  C  C9  1  0.750000  0.952430  0.202430  1
  C  C10  1  0.297570  0.250000  0.547570  1
  C  C11  1  0.547570  0.297570  0.250000  1
  C  C12  1  0.202430  0.750000  0.952430  1
  C  C13  1  0.952430  0.202430  0.750000  1
  C  C14  1  0.250000  0.702430  0.452430  1
  C  C15  1  0.702430  0.452430  0.250000  1
  C  C16  1  0.250000  0.547570  0.297570  1
  C  C17  1  0.452430  0.250000  0.702430  1
  C  C18  1  0.047570  0.750000  0.797570  1
  C  C19  1  0.797570  0.047570  0.750000  1
