# generated using pymatgen
data_Na3Ni2SbO6
_symmetry_space_group_name_H-M   'P 1'
_cell_length_a   5.36447830
_cell_length_b   5.36447830
_cell_length_c   5.68393815
_cell_angle_alpha   80.97261107
_cell_angle_beta   99.02738893
_cell_angle_gamma   60.02171460
_symmetry_Int_Tables_number   1
_chemical_formula_structural   Na3Ni2SbO6
_chemical_formula_sum   'Na3 Ni2 Sb1 O6'
_cell_volume   134.53444836
_cell_formula_units_Z   1
loop_
 _symmetry_equiv_pos_site_id
 _symmetry_equiv_pos_as_xyz
  1  'x, y, z'
loop_
 _atom_site_type_symbol
 _atom_site_label
 _atom_site_symmetry_multiplicity
 _atom_site_fract_x
 _atom_site_fract_y
 _atom_site_fract_z
 _atom_site_occupancy
  Na  Na0  1  0.500000  0.500000  0.500000  1
  Na  Na1  1  0.174753  0.174753  0.500000  1
  Na  Na2  1  0.825247  0.825247  0.500000  1
  Ni  Ni3  1  0.333798  0.333798  0.000000  1
  Ni  Ni4  1  0.666202  0.666202  0.000000  1
  Sb  Sb5  1  0.000000  0.000000  0.000000  1
  O  O6  1  0.613615  0.067906  0.795586  1
  O  O7  1  0.750264  0.249736  0.204284  1
  O  O8  1  0.249736  0.750264  0.795716  1
  O  O9  1  0.932094  0.386385  0.795586  1
  O  O10  1  0.067906  0.613615  0.204414  1
  O  O11  1  0.386385  0.932094  0.204414  1
