# generated using pymatgen
data_YSiAu
_symmetry_space_group_name_H-M   'P 1'
_cell_length_a   4.33245982
_cell_length_b   4.33245982
_cell_length_c   7.65724000
_cell_angle_alpha   90.00000000
_cell_angle_beta   90.00000000
_cell_angle_gamma   120.00000000
_symmetry_Int_Tables_number   1
_chemical_formula_structural   YSiAu
_chemical_formula_sum   'Y2 Si2 Au2'
_cell_volume   124.47208890
_cell_formula_units_Z   2
loop_
 _symmetry_equiv_pos_site_id
 _symmetry_equiv_pos_as_xyz
  1  'x, y, z'
loop_
 _atom_site_type_symbol
 _atom_site_label
 _atom_site_symmetry_multiplicity
 _atom_site_fract_x
 _atom_site_fract_y
 _atom_site_fract_z
 _atom_site_occupancy
  Y  Y0  1  0.000000  0.000000  0.499500  1
  Y  Y1  1  0.000000  0.000000  0.999500  1
  Si  Si2  1  0.666667  0.333333  0.276231  1
  Si  Si3  1  0.333333  0.666667  0.776231  1
  Au  Au4  1  0.333333  0.666667  0.233269  1
  Au  Au5  1  0.666667  0.333333  0.733269  1
