# generated using pymatgen
data_YReN3
_symmetry_space_group_name_H-M   'P 1'
_cell_length_a   5.40331031
_cell_length_b   5.63008872
_cell_length_c   7.72468530
_cell_angle_alpha   90.00000000
_cell_angle_beta   90.00000000
_cell_angle_gamma   90.00000000
_symmetry_Int_Tables_number   1
_chemical_formula_structural   YReN3
_chemical_formula_sum   'Y4 Re4 N12'
_cell_volume   234.99355116
_cell_formula_units_Z   4
loop_
 _symmetry_equiv_pos_site_id
 _symmetry_equiv_pos_as_xyz
  1  'x, y, z'
loop_
 _atom_site_type_symbol
 _atom_site_label
 _atom_site_symmetry_multiplicity
 _atom_site_fract_x
 _atom_site_fract_y
 _atom_site_fract_z
 _atom_site_occupancy
  Y  Y0  1  0.488423  0.438931  0.250000  1
  Y  Y1  1  0.011577  0.938931  0.250000  1
  Y  Y2  1  0.511577  0.561069  0.750000  1
  Y  Y3  1  0.988423  0.061069  0.750000  1
  Re  Re4  1  0.500000  0.000000  0.500000  1
  Re  Re5  1  0.000000  0.500000  0.000000  1
  Re  Re6  1  0.000000  0.500000  0.500000  1
  Re  Re7  1  0.500000  0.000000  0.000000  1
  N  N8  1  0.699620  0.296722  0.543376  1
  N  N9  1  0.300380  0.703278  0.043376  1
  N  N10  1  0.199620  0.203278  0.043376  1
  N  N11  1  0.418121  0.981969  0.750000  1
  N  N12  1  0.918121  0.518031  0.250000  1
  N  N13  1  0.300380  0.703278  0.456624  1
  N  N14  1  0.800380  0.796722  0.956624  1
  N  N15  1  0.699620  0.296722  0.956624  1
  N  N16  1  0.800380  0.796722  0.543376  1
  N  N17  1  0.081879  0.481969  0.750000  1
  N  N18  1  0.199620  0.203278  0.456624  1
  N  N19  1  0.581879  0.018031  0.250000  1
