# generated using pymatgen
data_KGeBr3
_symmetry_space_group_name_H-M   'P 1'
_cell_length_a   5.60540954
_cell_length_b   5.60540954
_cell_length_c   5.59204649
_cell_angle_alpha   89.03163206
_cell_angle_beta   90.96836794
_cell_angle_gamma   90.76023070
_symmetry_Int_Tables_number   1
_chemical_formula_structural   KGeBr3
_chemical_formula_sum   'K1 Ge1 Br3'
_cell_volume   175.64054798
_cell_formula_units_Z   1
loop_
 _symmetry_equiv_pos_site_id
 _symmetry_equiv_pos_as_xyz
  1  'x, y, z'
loop_
 _atom_site_type_symbol
 _atom_site_label
 _atom_site_symmetry_multiplicity
 _atom_site_fract_x
 _atom_site_fract_y
 _atom_site_fract_z
 _atom_site_occupancy
  K  K0  1  0.001847  0.998153  0.999405  1
  Ge  Ge1  1  0.521622  0.478378  0.466577  1
  Br  Br2  1  0.985440  0.498145  0.486357  1
  Br  Br3  1  0.494286  0.505714  0.999213  1
  Br  Br4  1  0.501855  0.014560  0.486357  1
