# generated using pymatgen
data_SbSI
_symmetry_space_group_name_H-M   'P 1'
_cell_length_a   4.13257297
_cell_length_b   9.56552013
_cell_length_c   10.85412445
_cell_angle_alpha   90.00000000
_cell_angle_beta   90.00000000
_cell_angle_gamma   90.00000000
_symmetry_Int_Tables_number   1
_chemical_formula_structural   SbSI
_chemical_formula_sum   'Sb4 S4 I4'
_cell_volume   429.06581790
_cell_formula_units_Z   4
loop_
 _symmetry_equiv_pos_site_id
 _symmetry_equiv_pos_as_xyz
  1  'x, y, z'
loop_
 _atom_site_type_symbol
 _atom_site_label
 _atom_site_symmetry_multiplicity
 _atom_site_fract_x
 _atom_site_fract_y
 _atom_site_fract_z
 _atom_site_occupancy
  Sb  Sb0  1  0.250000  0.080449  0.870938  1
  Sb  Sb1  1  0.250000  0.419551  0.370938  1
  Sb  Sb2  1  0.750000  0.919551  0.129062  1
  Sb  Sb3  1  0.750000  0.580449  0.629062  1
  S  S4  1  0.250000  0.848405  0.978275  1
  S  S5  1  0.250000  0.651595  0.478275  1
  S  S6  1  0.750000  0.151595  0.021725  1
  S  S7  1  0.750000  0.348405  0.521725  1
  I  I8  1  0.250000  0.047466  0.315081  1
  I  I9  1  0.250000  0.452534  0.815081  1
  I  I10  1  0.750000  0.952534  0.684919  1
  I  I11  1  0.750000  0.547466  0.184919  1
