# generated using pymatgen
data_Y(BIr)4
_symmetry_space_group_name_H-M   'P 1'
_cell_length_a   7.63940726
_cell_length_b   7.63940726
_cell_length_c   3.99717311
_cell_angle_alpha   90.00000000
_cell_angle_beta   90.00000000
_cell_angle_gamma   90.00000000
_symmetry_Int_Tables_number   1
_chemical_formula_structural   Y(BIr)4
_chemical_formula_sum   'Y2 B8 Ir8'
_cell_volume   233.27719430
_cell_formula_units_Z   2
loop_
 _symmetry_equiv_pos_site_id
 _symmetry_equiv_pos_as_xyz
  1  'x, y, z'
loop_
 _atom_site_type_symbol
 _atom_site_label
 _atom_site_symmetry_multiplicity
 _atom_site_fract_x
 _atom_site_fract_y
 _atom_site_fract_z
 _atom_site_occupancy
  Y  Y0  1  0.000000  0.000000  0.000000  1
  Y  Y1  1  0.500000  0.500000  0.500000  1
  B  B2  1  0.341833  0.778835  0.888758  1
  B  B3  1  0.658167  0.221165  0.888758  1
  B  B4  1  0.778835  0.658167  0.111242  1
  B  B5  1  0.221165  0.341833  0.111242  1
  B  B6  1  0.278835  0.158167  0.388758  1
  B  B7  1  0.721165  0.841833  0.388758  1
  B  B8  1  0.841833  0.278835  0.611242  1
  B  B9  1  0.158167  0.721165  0.611242  1
  Ir  Ir10  1  0.390461  0.159879  0.887493  1
  Ir  Ir11  1  0.609539  0.840121  0.887493  1
  Ir  Ir12  1  0.840121  0.390461  0.112507  1
  Ir  Ir13  1  0.159879  0.609539  0.112507  1
  Ir  Ir14  1  0.340121  0.890461  0.387493  1
  Ir  Ir15  1  0.659879  0.109539  0.387493  1
  Ir  Ir16  1  0.890461  0.659879  0.612507  1
  Ir  Ir17  1  0.109539  0.340121  0.612507  1
