# generated using pymatgen
data_CaTcN3
_symmetry_space_group_name_H-M   'P 1'
_cell_length_a   6.44817980
_cell_length_b   6.44817980
_cell_length_c   6.47595612
_cell_angle_alpha   74.93819719
_cell_angle_beta   105.06180281
_cell_angle_gamma   147.06499788
_symmetry_Int_Tables_number   1
_chemical_formula_structural   CaTcN3
_chemical_formula_sum   'Ca2 Tc2 N6'
_cell_volume   140.91814705
_cell_formula_units_Z   2
loop_
 _symmetry_equiv_pos_site_id
 _symmetry_equiv_pos_as_xyz
  1  'x, y, z'
loop_
 _atom_site_type_symbol
 _atom_site_label
 _atom_site_symmetry_multiplicity
 _atom_site_fract_x
 _atom_site_fract_y
 _atom_site_fract_z
 _atom_site_occupancy
  Ca  Ca0  1  0.378440  0.621560  0.671330  1
  Ca  Ca1  1  0.621560  0.378440  0.328670  1
  Tc  Tc2  1  0.154770  0.845230  0.849250  1
  Tc  Tc3  1  0.845230  0.154770  0.150750  1
  N  N4  1  0.156730  0.843270  0.577710  1
  N  N5  1  0.680180  0.319820  0.992560  1
  N  N6  1  0.997490  0.002510  0.097530  1
  N  N7  1  0.843270  0.156730  0.422290  1
  N  N8  1  0.002510  0.997490  0.902470  1
  N  N9  1  0.319820  0.680180  0.007440  1
