# generated using pymatgen
data_LiMg2
_symmetry_space_group_name_H-M   'P 1'
_cell_length_a   5.73123682
_cell_length_b   5.73123682
_cell_length_c   7.13494895
_cell_angle_alpha   71.77917101
_cell_angle_beta   108.22082899
_cell_angle_gamma   145.28242267
_symmetry_Int_Tables_number   1
_chemical_formula_structural   LiMg2
_chemical_formula_sum   'Li2 Mg4'
_cell_volume   126.11096368
_cell_formula_units_Z   2
loop_
 _symmetry_equiv_pos_site_id
 _symmetry_equiv_pos_as_xyz
  1  'x, y, z'
loop_
 _atom_site_type_symbol
 _atom_site_label
 _atom_site_symmetry_multiplicity
 _atom_site_fract_x
 _atom_site_fract_y
 _atom_site_fract_z
 _atom_site_occupancy
  Li  Li0  1  0.169228  0.830772  0.564476  1
  Li  Li1  1  0.830772  0.169228  0.435524  1
  Mg  Mg2  1  0.487465  0.512535  0.262759  1
  Mg  Mg3  1  0.170319  0.829681  0.105368  1
  Mg  Mg4  1  0.829681  0.170319  0.894632  1
  Mg  Mg5  1  0.512535  0.487465  0.737241  1
