# generated using pymatgen
data_RuAu3
_symmetry_space_group_name_H-M   'P 1'
_cell_length_a   5.84456029
_cell_length_b   5.84456029
_cell_length_c   4.70478636
_cell_angle_alpha   90.00000000
_cell_angle_beta   90.00000000
_cell_angle_gamma   120.00000000
_symmetry_Int_Tables_number   1
_chemical_formula_structural   RuAu3
_chemical_formula_sum   'Ru2 Au6'
_cell_volume   139.17916427
_cell_formula_units_Z   2
loop_
 _symmetry_equiv_pos_site_id
 _symmetry_equiv_pos_as_xyz
  1  'x, y, z'
loop_
 _atom_site_type_symbol
 _atom_site_label
 _atom_site_symmetry_multiplicity
 _atom_site_fract_x
 _atom_site_fract_y
 _atom_site_fract_z
 _atom_site_occupancy
  Ru  Ru0  1  0.333333  0.666667  0.750000  1
  Ru  Ru1  1  0.666667  0.333333  0.250000  1
  Au  Au2  1  0.169034  0.338069  0.250000  1
  Au  Au3  1  0.661931  0.830966  0.250000  1
  Au  Au4  1  0.169034  0.830966  0.250000  1
  Au  Au5  1  0.830966  0.661931  0.750000  1
  Au  Au6  1  0.338069  0.169034  0.750000  1
  Au  Au7  1  0.830966  0.169034  0.750000  1
