# generated using pymatgen
data_TmAs3
_symmetry_space_group_name_H-M   'P 1'
_cell_length_a   5.93631242
_cell_length_b   5.93631242
_cell_length_c   5.49120384
_cell_angle_alpha   90.00000000
_cell_angle_beta   90.00000000
_cell_angle_gamma   120.00000000
_symmetry_Int_Tables_number   1
_chemical_formula_structural   TmAs3
_chemical_formula_sum   'Tm2 As6'
_cell_volume   167.58366947
_cell_formula_units_Z   2
loop_
 _symmetry_equiv_pos_site_id
 _symmetry_equiv_pos_as_xyz
  1  'x, y, z'
loop_
 _atom_site_type_symbol
 _atom_site_label
 _atom_site_symmetry_multiplicity
 _atom_site_fract_x
 _atom_site_fract_y
 _atom_site_fract_z
 _atom_site_occupancy
  Tm  Tm0  1  0.333333  0.666667  0.750000  1
  Tm  Tm1  1  0.666667  0.333333  0.250000  1
  As  As2  1  0.181664  0.363328  0.250000  1
  As  As3  1  0.636672  0.818336  0.250000  1
  As  As4  1  0.181664  0.818336  0.250000  1
  As  As5  1  0.818336  0.636672  0.750000  1
  As  As6  1  0.363328  0.181664  0.750000  1
  As  As7  1  0.818336  0.181664  0.750000  1
