# generated using pymatgen
data_SnCl
_symmetry_space_group_name_H-M   'P 1'
_cell_length_a   3.49754460
_cell_length_b   3.49754460
_cell_length_c   10.06220912
_cell_angle_alpha   90.00000000
_cell_angle_beta   90.00000000
_cell_angle_gamma   120.00000000
_symmetry_Int_Tables_number   1
_chemical_formula_structural   SnCl
_chemical_formula_sum   'Sn2 Cl2'
_cell_volume   106.59835247
_cell_formula_units_Z   2
loop_
 _symmetry_equiv_pos_site_id
 _symmetry_equiv_pos_as_xyz
  1  'x, y, z'
loop_
 _atom_site_type_symbol
 _atom_site_label
 _atom_site_symmetry_multiplicity
 _atom_site_fract_x
 _atom_site_fract_y
 _atom_site_fract_z
 _atom_site_occupancy
  Sn  Sn0  1  0.333333  0.666667  0.320510  1
  Sn  Sn1  1  0.666667  0.333333  0.820510  1
  Cl  Cl2  1  0.333333  0.666667  0.054491  1
  Cl  Cl3  1  0.666667  0.333333  0.554491  1
