# generated using pymatgen
data_Pm3Y
_symmetry_space_group_name_H-M   'P 1'
_cell_length_a   6.29411322
_cell_length_b   6.29411322
_cell_length_c   6.29411322
_cell_angle_alpha   131.72640886
_cell_angle_beta   131.72640886
_cell_angle_gamma   70.66147909
_symmetry_Int_Tables_number   1
_chemical_formula_structural   Pm3Y
_chemical_formula_sum   'Pm3 Y1'
_cell_volume   136.06030599
_cell_formula_units_Z   1
loop_
 _symmetry_equiv_pos_site_id
 _symmetry_equiv_pos_as_xyz
  1  'x, y, z'
loop_
 _atom_site_type_symbol
 _atom_site_label
 _atom_site_symmetry_multiplicity
 _atom_site_fract_x
 _atom_site_fract_y
 _atom_site_fract_z
 _atom_site_occupancy
  Pm  Pm0  1  0.250000  0.750000  0.500000  1
  Pm  Pm1  1  0.750000  0.250000  0.500000  1
  Pm  Pm2  1  0.500000  0.500000  0.000000  1
  Y  Y3  1  0.000000  0.000000  0.000000  1
