# generated using pymatgen
data_Tm6Al7Cu16
_symmetry_space_group_name_H-M   'P 1'
_cell_length_a   8.62514150
_cell_length_b   8.62514150
_cell_length_c   8.62514150
_cell_angle_alpha   60.00000000
_cell_angle_beta   60.00000000
_cell_angle_gamma   60.00000000
_symmetry_Int_Tables_number   1
_chemical_formula_structural   Tm6Al7Cu16
_chemical_formula_sum   'Tm6 Al7 Cu16'
_cell_volume   453.71557562
_cell_formula_units_Z   1
loop_
 _symmetry_equiv_pos_site_id
 _symmetry_equiv_pos_as_xyz
  1  'x, y, z'
loop_
 _atom_site_type_symbol
 _atom_site_label
 _atom_site_symmetry_multiplicity
 _atom_site_fract_x
 _atom_site_fract_y
 _atom_site_fract_z
 _atom_site_occupancy
  Tm  Tm0  1  0.208732  0.791268  0.791268  1
  Tm  Tm1  1  0.791268  0.208732  0.208732  1
  Tm  Tm2  1  0.791268  0.791268  0.208732  1
  Tm  Tm3  1  0.208732  0.791268  0.208732  1
  Tm  Tm4  1  0.208732  0.208732  0.791268  1
  Tm  Tm5  1  0.791268  0.208732  0.791268  1
  Al  Al6  1  0.500000  0.000000  0.000000  1
  Al  Al7  1  0.000000  0.500000  0.500000  1
  Al  Al8  1  0.000000  0.000000  0.500000  1
  Al  Al9  1  0.500000  0.000000  0.500000  1
  Al  Al10  1  0.500000  0.500000  1.000000  1
  Al  Al11  1  0.000000  0.500000  1.000000  1
  Al  Al12  1  0.500000  0.500000  0.500000  1
  Cu  Cu13  1  0.172586  0.482241  0.172586  1
  Cu  Cu14  1  0.172586  0.172586  0.172586  1
  Cu  Cu15  1  0.172586  0.172586  0.482241  1
  Cu  Cu16  1  0.482241  0.172586  0.172586  1
  Cu  Cu17  1  0.827414  0.517759  0.827414  1
  Cu  Cu18  1  0.827414  0.827414  0.827414  1
  Cu  Cu19  1  0.517759  0.827414  0.827414  1
  Cu  Cu20  1  0.827414  0.827414  0.517759  1
  Cu  Cu21  1  0.379241  0.862277  0.379241  1
  Cu  Cu22  1  0.379241  0.379241  0.379241  1
  Cu  Cu23  1  0.379241  0.379241  0.862277  1
  Cu  Cu24  1  0.862277  0.379241  0.379241  1
  Cu  Cu25  1  0.620759  0.137723  0.620759  1
  Cu  Cu26  1  0.620759  0.620759  0.620759  1
  Cu  Cu27  1  0.137723  0.620759  0.620759  1
  Cu  Cu28  1  0.620759  0.620759  0.137723  1
