# generated using pymatgen
data_BiAuO2
_symmetry_space_group_name_H-M   'P 1'
_cell_length_a   6.55056000
_cell_length_b   3.68433000
_cell_length_c   6.70136999
_cell_angle_alpha   90.00000000
_cell_angle_beta   115.77547668
_cell_angle_gamma   90.00000000
_symmetry_Int_Tables_number   1
_chemical_formula_structural   BiAuO2
_chemical_formula_sum   'Bi2 Au2 O4'
_cell_volume   145.64200973
_cell_formula_units_Z   2
loop_
 _symmetry_equiv_pos_site_id
 _symmetry_equiv_pos_as_xyz
  1  'x, y, z'
loop_
 _atom_site_type_symbol
 _atom_site_label
 _atom_site_symmetry_multiplicity
 _atom_site_fract_x
 _atom_site_fract_y
 _atom_site_fract_z
 _atom_site_occupancy
  Bi  Bi0  1  0.936420  0.750000  0.234470  1
  Bi  Bi1  1  0.063580  0.250000  0.765530  1
  Au  Au2  1  0.527780  0.750000  0.693360  1
  Au  Au3  1  0.472220  0.250000  0.306640  1
  O  O4  1  0.125950  0.250000  0.188940  1
  O  O5  1  0.815780  0.250000  0.407250  1
  O  O6  1  0.184220  0.750000  0.592750  1
  O  O7  1  0.874050  0.750000  0.811060  1
