# generated using pymatgen
data_Nd(Mg4Al3)4
_symmetry_space_group_name_H-M   'P 1'
_cell_length_a   9.15003319
_cell_length_b   9.15003319
_cell_length_c   9.15003319
_cell_angle_alpha   109.47122063
_cell_angle_beta   109.47122063
_cell_angle_gamma   109.47122063
_symmetry_Int_Tables_number   1
_chemical_formula_structural   Nd(Mg4Al3)4
_chemical_formula_sum   'Nd1 Mg16 Al12'
_cell_volume   589.72035463
_cell_formula_units_Z   1
loop_
 _symmetry_equiv_pos_site_id
 _symmetry_equiv_pos_as_xyz
  1  'x, y, z'
loop_
 _atom_site_type_symbol
 _atom_site_label
 _atom_site_symmetry_multiplicity
 _atom_site_fract_x
 _atom_site_fract_y
 _atom_site_fract_z
 _atom_site_occupancy
  Nd  Nd0  1  0.000000  0.000000  0.000000  1
  Mg  Mg1  1  0.361543  1.000000  0.000000  1
  Mg  Mg2  1  0.602508  0.319705  0.000000  1
  Mg  Mg3  1  1.000000  0.361543  0.000000  1
  Mg  Mg4  1  0.319705  0.602508  0.000000  1
  Mg  Mg5  1  0.680295  0.680295  0.282803  1
  Mg  Mg6  1  0.602508  1.000000  0.319705  1
  Mg  Mg7  1  1.000000  0.602508  0.319705  1
  Mg  Mg8  1  1.000000  1.000000  0.361543  1
  Mg  Mg9  1  0.717197  0.397492  0.397492  1
  Mg  Mg10  1  0.397492  0.717197  0.397492  1
  Mg  Mg11  1  1.000000  0.319705  0.602508  1
  Mg  Mg12  1  0.319705  1.000000  0.602508  1
  Mg  Mg13  1  0.638457  0.638457  0.638457  1
  Mg  Mg14  1  0.282803  0.680295  0.680295  1
  Mg  Mg15  1  0.680295  0.282803  0.680295  1
  Mg  Mg16  1  0.397492  0.397492  0.717197  1
  Al  Al17  1  0.629471  0.812274  1.000000  1
  Al  Al18  1  0.812274  0.629471  0.000000  1
  Al  Al19  1  0.370529  0.370529  0.182803  1
  Al  Al20  1  0.817197  0.187726  0.187726  1
  Al  Al21  1  0.187726  0.817197  0.187726  1
  Al  Al22  1  0.182803  0.370529  0.370529  1
  Al  Al23  1  0.370529  0.182803  0.370529  1
  Al  Al24  1  0.812274  1.000000  0.629471  1
  Al  Al25  1  1.000000  0.812274  0.629471  1
  Al  Al26  1  1.000000  0.629471  0.812274  1
  Al  Al27  1  0.629471  1.000000  0.812274  1
  Al  Al28  1  0.187726  0.187726  0.817197  1
