# generated using pymatgen
data_YB4Os
_symmetry_space_group_name_H-M   'P 1'
_cell_length_a   3.57084356
_cell_length_b   5.97825193
_cell_length_c   11.56774396
_cell_angle_alpha   90.00000000
_cell_angle_beta   90.00000000
_cell_angle_gamma   90.00000000
_symmetry_Int_Tables_number   1
_chemical_formula_structural   YB4Os
_chemical_formula_sum   'Y4 B16 Os4'
_cell_volume   246.94128523
_cell_formula_units_Z   4
loop_
 _symmetry_equiv_pos_site_id
 _symmetry_equiv_pos_as_xyz
  1  'x, y, z'
loop_
 _atom_site_type_symbol
 _atom_site_label
 _atom_site_symmetry_multiplicity
 _atom_site_fract_x
 _atom_site_fract_y
 _atom_site_fract_z
 _atom_site_occupancy
  Y  Y0  1  0.000000  0.628136  0.649844  1
  Y  Y1  1  0.000000  0.371864  0.350156  1
  Y  Y2  1  0.000000  0.128136  0.850156  1
  Y  Y3  1  0.000000  0.871864  0.149844  1
  B  B4  1  0.500000  0.974722  0.691427  1
  B  B5  1  0.500000  0.025278  0.308573  1
  B  B6  1  0.500000  0.474722  0.808573  1
  B  B7  1  0.500000  0.525278  0.191427  1
  B  B8  1  0.500000  0.788713  0.814274  1
  B  B9  1  0.500000  0.211287  0.185726  1
  B  B10  1  0.500000  0.288713  0.685726  1
  B  B11  1  0.500000  0.711287  0.314274  1
  B  B12  1  0.500000  0.863610  0.969762  1
  B  B13  1  0.500000  0.136390  0.030238  1
  B  B14  1  0.500000  0.363610  0.530238  1
  B  B15  1  0.500000  0.636390  0.469762  1
  B  B16  1  0.500000  0.887496  0.546580  1
  B  B17  1  0.500000  0.112504  0.453420  1
  B  B18  1  0.500000  0.387496  0.953420  1
  B  B19  1  0.500000  0.612504  0.046580  1
  Os  Os20  1  0.000000  0.640466  0.906612  1
  Os  Os21  1  0.000000  0.359534  0.093388  1
  Os  Os22  1  0.000000  0.140466  0.593388  1
  Os  Os23  1  0.000000  0.859534  0.406612  1
