# generated using pymatgen
data_NdY3
_symmetry_space_group_name_H-M   'P 1'
_cell_length_a   6.25112687
_cell_length_b   6.25112687
_cell_length_c   6.25112687
_cell_angle_alpha   131.82409301
_cell_angle_beta   131.82409301
_cell_angle_gamma   70.50699513
_symmetry_Int_Tables_number   1
_chemical_formula_structural   NdY3
_chemical_formula_sum   'Nd1 Y3'
_cell_volume   132.91158994
_cell_formula_units_Z   1
loop_
 _symmetry_equiv_pos_site_id
 _symmetry_equiv_pos_as_xyz
  1  'x, y, z'
loop_
 _atom_site_type_symbol
 _atom_site_label
 _atom_site_symmetry_multiplicity
 _atom_site_fract_x
 _atom_site_fract_y
 _atom_site_fract_z
 _atom_site_occupancy
  Nd  Nd0  1  0.000000  0.000000  0.000000  1
  Y  Y1  1  0.250000  0.750000  0.500000  1
  Y  Y2  1  0.750000  0.250000  0.500000  1
  Y  Y3  1  0.500000  0.500000  0.000000  1
