# generated using pymatgen
data_Nd11In9Ni4
_symmetry_space_group_name_H-M   'P 1'
_cell_length_a   13.29464470
_cell_length_b   13.29464470
_cell_length_c   3.74413580
_cell_angle_alpha   90.00000000
_cell_angle_beta   90.00000000
_cell_angle_gamma   112.69760097
_symmetry_Int_Tables_number   1
_chemical_formula_structural   Nd11In9Ni4
_chemical_formula_sum   'Nd11 In9 Ni4'
_cell_volume   610.51589430
_cell_formula_units_Z   1
loop_
 _symmetry_equiv_pos_site_id
 _symmetry_equiv_pos_as_xyz
  1  'x, y, z'
loop_
 _atom_site_type_symbol
 _atom_site_label
 _atom_site_symmetry_multiplicity
 _atom_site_fract_x
 _atom_site_fract_y
 _atom_site_fract_z
 _atom_site_occupancy
  Nd  Nd0  1  0.078464  0.416200  1.000000  1
  Nd  Nd1  1  0.921536  0.583800  1.000000  1
  Nd  Nd2  1  0.416200  0.078464  1.000000  1
  Nd  Nd3  1  0.583800  0.921536  0.000000  1
  Nd  Nd4  1  0.625478  0.374522  0.000000  1
  Nd  Nd5  1  0.374522  0.625478  0.000000  1
  Nd  Nd6  1  0.837521  0.162479  0.000000  1
  Nd  Nd7  1  0.162479  0.837521  0.000000  1
  Nd  Nd8  1  0.000000  0.000000  0.000000  1
  Nd  Nd9  1  0.312730  0.312730  1.000000  1
  Nd  Nd10  1  0.687270  0.687270  0.000000  1
  In  In11  1  0.837904  0.368167  0.500000  1
  In  In12  1  0.162096  0.631833  0.500000  1
  In  In13  1  0.368167  0.837904  0.500000  1
  In  In14  1  0.631833  0.162096  0.500000  1
  In  In15  1  0.080176  0.220172  0.500000  1
  In  In16  1  0.919824  0.779828  0.500000  1
  In  In17  1  0.220172  0.080176  0.500000  1
  In  In18  1  0.779828  0.919824  0.500000  1
  In  In19  1  0.500000  0.500000  0.500000  1
  Ni  Ni20  1  0.246171  0.448664  0.500000  1
  Ni  Ni21  1  0.753829  0.551336  0.500000  1
  Ni  Ni22  1  0.448664  0.246171  0.500000  1
  Ni  Ni23  1  0.551336  0.753829  0.500000  1
