# generated using pymatgen
data_RbAgBr3
_symmetry_space_group_name_H-M   'P 1'
_cell_length_a   5.44682412
_cell_length_b   5.44682412
_cell_length_c   5.44716971
_cell_angle_alpha   89.87304397
_cell_angle_beta   90.12695603
_cell_angle_gamma   89.99743121
_symmetry_Int_Tables_number   1
_chemical_formula_structural   RbAgBr3
_chemical_formula_sum   'Rb1 Ag1 Br3'
_cell_volume   161.60525438
_cell_formula_units_Z   1
loop_
 _symmetry_equiv_pos_site_id
 _symmetry_equiv_pos_as_xyz
  1  'x, y, z'
loop_
 _atom_site_type_symbol
 _atom_site_label
 _atom_site_symmetry_multiplicity
 _atom_site_fract_x
 _atom_site_fract_y
 _atom_site_fract_z
 _atom_site_occupancy
  Rb  Rb0  1  0.998795  0.001205  0.002929  1
  Ag  Ag1  1  0.502695  0.497305  0.516129  1
  Br  Br2  1  0.506310  0.000295  0.514237  1
  Br  Br3  1  0.494152  0.505848  0.015779  1
  Br  Br4  1  0.999705  0.493690  0.514237  1
