# generated using pymatgen
data_Sm3Dy
_symmetry_space_group_name_H-M   'P 1'
_cell_length_a   7.30213869
_cell_length_b   7.30213869
_cell_length_c   5.81128625
_cell_angle_alpha   90.00000000
_cell_angle_beta   90.00000000
_cell_angle_gamma   120.00000000
_symmetry_Int_Tables_number   1
_chemical_formula_structural   Sm3Dy
_chemical_formula_sum   'Sm6 Dy2'
_cell_volume   268.35089901
_cell_formula_units_Z   2
loop_
 _symmetry_equiv_pos_site_id
 _symmetry_equiv_pos_as_xyz
  1  'x, y, z'
loop_
 _atom_site_type_symbol
 _atom_site_label
 _atom_site_symmetry_multiplicity
 _atom_site_fract_x
 _atom_site_fract_y
 _atom_site_fract_z
 _atom_site_occupancy
  Sm  Sm0  1  0.166675  0.333350  0.250000  1
  Sm  Sm1  1  0.666650  0.833325  0.250000  1
  Sm  Sm2  1  0.166675  0.833325  0.250000  1
  Sm  Sm3  1  0.833325  0.666650  0.750000  1
  Sm  Sm4  1  0.333350  0.166675  0.750000  1
  Sm  Sm5  1  0.833325  0.166675  0.750000  1
  Dy  Dy6  1  0.333333  0.666667  0.750000  1
  Dy  Dy7  1  0.666667  0.333333  0.250000  1
