# generated using pymatgen
data_ZnIn3
_symmetry_space_group_name_H-M   'P 1'
_cell_length_a   7.06380991
_cell_length_b   7.06380991
_cell_length_c   5.05886675
_cell_angle_alpha   90.00000000
_cell_angle_beta   90.00000000
_cell_angle_gamma   127.40304227
_symmetry_Int_Tables_number   1
_chemical_formula_structural   ZnIn3
_chemical_formula_sum   'Zn2 In6'
_cell_volume   200.52145388
_cell_formula_units_Z   2
loop_
 _symmetry_equiv_pos_site_id
 _symmetry_equiv_pos_as_xyz
  1  'x, y, z'
loop_
 _atom_site_type_symbol
 _atom_site_label
 _atom_site_symmetry_multiplicity
 _atom_site_fract_x
 _atom_site_fract_y
 _atom_site_fract_z
 _atom_site_occupancy
  Zn  Zn0  1  0.169173  0.830827  0.250000  1
  Zn  Zn1  1  0.830827  0.169173  0.750000  1
  In  In2  1  0.328379  0.168247  0.750000  1
  In  In3  1  0.313342  0.686658  0.750000  1
  In  In4  1  0.831753  0.671621  0.750000  1
  In  In5  1  0.671621  0.831753  0.250000  1
  In  In6  1  0.686658  0.313342  0.250000  1
  In  In7  1  0.168247  0.328379  0.250000  1
