# generated using pymatgen
data_InSnCl3
_symmetry_space_group_name_H-M   'P 1'
_cell_length_a   5.66954803
_cell_length_b   5.66954803
_cell_length_c   5.77651386
_cell_angle_alpha   88.63860957
_cell_angle_beta   91.36139043
_cell_angle_gamma   91.20428256
_symmetry_Int_Tables_number   1
_chemical_formula_structural   InSnCl3
_chemical_formula_sum   'In1 Sn1 Cl3'
_cell_volume   185.53528909
_cell_formula_units_Z   1
loop_
 _symmetry_equiv_pos_site_id
 _symmetry_equiv_pos_as_xyz
  1  'x, y, z'
loop_
 _atom_site_type_symbol
 _atom_site_label
 _atom_site_symmetry_multiplicity
 _atom_site_fract_x
 _atom_site_fract_y
 _atom_site_fract_z
 _atom_site_occupancy
  In  In0  1  0.088899  0.911101  0.080436  1
  Sn  Sn1  1  0.488484  0.511516  0.469161  1
  Cl  Cl2  1  0.007750  0.534099  0.440747  1
  Cl  Cl3  1  0.455298  0.544702  0.011843  1
  Cl  Cl4  1  0.465901  0.992250  0.440747  1
