# generated using pymatgen
data_Tm3Lu
_symmetry_space_group_name_H-M   'P 1'
_cell_length_a   7.10829599
_cell_length_b   7.10829599
_cell_length_c   5.52025771
_cell_angle_alpha   90.00000000
_cell_angle_beta   90.00000000
_cell_angle_gamma   120.00000000
_symmetry_Int_Tables_number   1
_chemical_formula_structural   Tm3Lu
_chemical_formula_sum   'Tm6 Lu2'
_cell_volume   241.55775874
_cell_formula_units_Z   2
loop_
 _symmetry_equiv_pos_site_id
 _symmetry_equiv_pos_as_xyz
  1  'x, y, z'
loop_
 _atom_site_type_symbol
 _atom_site_label
 _atom_site_symmetry_multiplicity
 _atom_site_fract_x
 _atom_site_fract_y
 _atom_site_fract_z
 _atom_site_occupancy
  Tm  Tm0  1  0.833321  0.166679  0.750000  1
  Tm  Tm1  1  0.333359  0.166679  0.750000  1
  Tm  Tm2  1  0.833321  0.666641  0.750000  1
  Tm  Tm3  1  0.166679  0.833321  0.250000  1
  Tm  Tm4  1  0.166679  0.333359  0.250000  1
  Tm  Tm5  1  0.666641  0.833321  0.250000  1
  Lu  Lu6  1  0.666667  0.333333  0.250000  1
  Lu  Lu7  1  0.333333  0.666667  0.750000  1
