# generated using pymatgen
data_NdBe13
_symmetry_space_group_name_H-M   'P 1'
_cell_length_a   7.28491246
_cell_length_b   7.28491246
_cell_length_c   7.28491246
_cell_angle_alpha   60.00000000
_cell_angle_beta   60.00000000
_cell_angle_gamma   60.00000000
_symmetry_Int_Tables_number   1
_chemical_formula_structural   NdBe13
_chemical_formula_sum   'Nd2 Be26'
_cell_volume   273.37450780
_cell_formula_units_Z   2
loop_
 _symmetry_equiv_pos_site_id
 _symmetry_equiv_pos_as_xyz
  1  'x, y, z'
loop_
 _atom_site_type_symbol
 _atom_site_label
 _atom_site_symmetry_multiplicity
 _atom_site_fract_x
 _atom_site_fract_y
 _atom_site_fract_z
 _atom_site_occupancy
  Nd  Nd0  1  0.750000  0.750000  0.750000  1
  Nd  Nd1  1  0.250000  0.250000  0.250000  1
  Be  Be2  1  0.936939  0.288495  0.711505  1
  Be  Be3  1  0.711505  0.063061  0.936939  1
  Be  Be4  1  0.063061  0.711505  0.288495  1
  Be  Be5  1  0.288495  0.936939  0.063061  1
  Be  Be6  1  0.711505  0.288495  0.063061  1
  Be  Be7  1  0.063061  0.288495  0.936939  1
  Be  Be8  1  0.063061  0.936939  0.711505  1
  Be  Be9  1  0.288495  0.063061  0.711505  1
  Be  Be10  1  0.936939  0.063061  0.288495  1
  Be  Be11  1  0.936939  0.711505  0.063061  1
  Be  Be12  1  0.288495  0.711505  0.936939  1
  Be  Be13  1  0.711505  0.936939  0.288495  1
  Be  Be14  1  0.788495  0.211505  0.563061  1
  Be  Be15  1  0.563061  0.436939  0.788495  1
  Be  Be16  1  0.211505  0.788495  0.436939  1
  Be  Be17  1  0.436939  0.563061  0.211505  1
  Be  Be18  1  0.436939  0.211505  0.788495  1
  Be  Be19  1  0.563061  0.211505  0.436939  1
  Be  Be20  1  0.788495  0.563061  0.436939  1
  Be  Be21  1  0.788495  0.436939  0.211505  1
  Be  Be22  1  0.211505  0.436939  0.563061  1
  Be  Be23  1  0.436939  0.788495  0.563061  1
  Be  Be24  1  0.563061  0.788495  0.211505  1
  Be  Be25  1  0.211505  0.563061  0.788495  1
  Be  Be26  1  0.000000  0.000000  0.000000  1
  Be  Be27  1  0.500000  0.500000  0.500000  1
