# generated using pymatgen
data_SrCe3
_symmetry_space_group_name_H-M   'P 1'
_cell_length_a   7.37317413
_cell_length_b   7.37317413
_cell_length_c   5.76857171
_cell_angle_alpha   90.00000000
_cell_angle_beta   90.00000000
_cell_angle_gamma   120.00000000
_symmetry_Int_Tables_number   1
_chemical_formula_structural   SrCe3
_chemical_formula_sum   'Sr2 Ce6'
_cell_volume   271.58633123
_cell_formula_units_Z   2
loop_
 _symmetry_equiv_pos_site_id
 _symmetry_equiv_pos_as_xyz
  1  'x, y, z'
loop_
 _atom_site_type_symbol
 _atom_site_label
 _atom_site_symmetry_multiplicity
 _atom_site_fract_x
 _atom_site_fract_y
 _atom_site_fract_z
 _atom_site_occupancy
  Sr  Sr0  1  0.333333  0.666667  0.750000  1
  Sr  Sr1  1  0.666667  0.333333  0.250000  1
  Ce  Ce2  1  0.152721  0.305442  0.250000  1
  Ce  Ce3  1  0.694558  0.847279  0.250000  1
  Ce  Ce4  1  0.152721  0.847279  0.250000  1
  Ce  Ce5  1  0.847279  0.694558  0.750000  1
  Ce  Ce6  1  0.305442  0.152721  0.750000  1
  Ce  Ce7  1  0.847279  0.152721  0.750000  1
