# generated using pymatgen
data_HoTh3
_symmetry_space_group_name_H-M   'P 1'
_cell_length_a   5.03246623
_cell_length_b   5.03246623
_cell_length_c   5.03246623
_cell_angle_alpha   90.00000000
_cell_angle_beta   90.00000000
_cell_angle_gamma   90.00000000
_symmetry_Int_Tables_number   1
_chemical_formula_structural   HoTh3
_chemical_formula_sum   'Ho1 Th3'
_cell_volume   127.45081231
_cell_formula_units_Z   1
loop_
 _symmetry_equiv_pos_site_id
 _symmetry_equiv_pos_as_xyz
  1  'x, y, z'
loop_
 _atom_site_type_symbol
 _atom_site_label
 _atom_site_symmetry_multiplicity
 _atom_site_fract_x
 _atom_site_fract_y
 _atom_site_fract_z
 _atom_site_occupancy
  Ho  Ho0  1  0.000000  0.000000  0.000000  1
  Th  Th1  1  0.500000  0.000000  0.500000  1
  Th  Th2  1  0.000000  0.500000  0.500000  1
  Th  Th3  1  0.500000  0.500000  0.000000  1
