# generated using pymatgen
data_HAuO2
_symmetry_space_group_name_H-M   'P 1'
_cell_length_a   3.10278000
_cell_length_b   4.57645000
_cell_length_c   7.35293000
_cell_angle_alpha   90.00000000
_cell_angle_beta   90.00000000
_cell_angle_gamma   90.00000000
_symmetry_Int_Tables_number   1
_chemical_formula_structural   HAuO2
_chemical_formula_sum   'H2 Au2 O4'
_cell_volume   104.40952903
_cell_formula_units_Z   2
loop_
 _symmetry_equiv_pos_site_id
 _symmetry_equiv_pos_as_xyz
  1  'x, y, z'
loop_
 _atom_site_type_symbol
 _atom_site_label
 _atom_site_symmetry_multiplicity
 _atom_site_fract_x
 _atom_site_fract_y
 _atom_site_fract_z
 _atom_site_occupancy
  H  H0  1  0.000000  0.321140  0.745210  1
  H  H1  1  0.500000  0.821140  0.254790  1
  Au  Au2  1  0.500000  0.789330  0.756910  1
  Au  Au3  1  0.000000  0.289330  0.243090  1
  O  O4  1  0.500000  0.547620  0.167510  1
  O  O5  1  0.500000  0.028290  0.325670  1
  O  O6  1  0.000000  0.528290  0.674330  1
  O  O7  1  0.000000  0.047620  0.832490  1
