# generated using pymatgen
data_LiMg2
_symmetry_space_group_name_H-M   'P 1'
_cell_length_a   8.29394768
_cell_length_b   8.29394768
_cell_length_c   5.06611442
_cell_angle_alpha   90.00000000
_cell_angle_beta   90.00000000
_cell_angle_gamma   158.19320141
_symmetry_Int_Tables_number   1
_chemical_formula_structural   LiMg2
_chemical_formula_sum   'Li2 Mg4'
_cell_volume   129.45853292
_cell_formula_units_Z   2
loop_
 _symmetry_equiv_pos_site_id
 _symmetry_equiv_pos_as_xyz
  1  'x, y, z'
loop_
 _atom_site_type_symbol
 _atom_site_label
 _atom_site_symmetry_multiplicity
 _atom_site_fract_x
 _atom_site_fract_y
 _atom_site_fract_z
 _atom_site_occupancy
  Li  Li0  1  0.389076  0.610924  0.750000  1
  Li  Li1  1  0.610924  0.389076  0.250000  1
  Mg  Mg2  1  0.722334  0.277666  0.750000  1
  Mg  Mg3  1  0.055242  0.944758  0.750000  1
  Mg  Mg4  1  0.277666  0.722334  0.250000  1
  Mg  Mg5  1  0.944758  0.055242  0.250000  1
