# generated using pymatgen
data_MgW3
_symmetry_space_group_name_H-M   'P 1'
_cell_length_a   5.78440848
_cell_length_b   5.78440848
_cell_length_c   4.68568620
_cell_angle_alpha   90.00000000
_cell_angle_beta   90.00000000
_cell_angle_gamma   120.00000000
_symmetry_Int_Tables_number   1
_chemical_formula_structural   MgW3
_chemical_formula_sum   'Mg2 W6'
_cell_volume   135.77560325
_cell_formula_units_Z   2
loop_
 _symmetry_equiv_pos_site_id
 _symmetry_equiv_pos_as_xyz
  1  'x, y, z'
loop_
 _atom_site_type_symbol
 _atom_site_label
 _atom_site_symmetry_multiplicity
 _atom_site_fract_x
 _atom_site_fract_y
 _atom_site_fract_z
 _atom_site_occupancy
  Mg  Mg0  1  0.666667  0.333333  0.250000  1
  Mg  Mg1  1  0.333333  0.666667  0.750000  1
  W  W2  1  0.154630  0.309260  0.250000  1
  W  W3  1  0.154630  0.845370  0.250000  1
  W  W4  1  0.690740  0.845370  0.250000  1
  W  W5  1  0.309260  0.154630  0.750000  1
  W  W6  1  0.845370  0.154630  0.750000  1
  W  W7  1  0.845370  0.690740  0.750000  1
