# generated using pymatgen
data_Nd2C(NO)2
_symmetry_space_group_name_H-M   'P 1'
_cell_length_a   3.92294984
_cell_length_b   3.92294984
_cell_length_c   8.36958598
_cell_angle_alpha   90.00000000
_cell_angle_beta   90.00000000
_cell_angle_gamma   120.00000000
_symmetry_Int_Tables_number   1
_chemical_formula_structural   Nd2C(NO)2
_chemical_formula_sum   'Nd2 C1 N2 O2'
_cell_volume   111.54757087
_cell_formula_units_Z   1
loop_
 _symmetry_equiv_pos_site_id
 _symmetry_equiv_pos_as_xyz
  1  'x, y, z'
loop_
 _atom_site_type_symbol
 _atom_site_label
 _atom_site_symmetry_multiplicity
 _atom_site_fract_x
 _atom_site_fract_y
 _atom_site_fract_z
 _atom_site_occupancy
  Nd  Nd0  1  0.666667  0.333333  0.819586  1
  Nd  Nd1  1  0.333333  0.666667  0.180414  1
  C  C2  1  0.000000  0.000000  0.500000  1
  N  N3  1  0.000000  0.000000  0.352136  1
  N  N4  1  0.000000  0.000000  0.647864  1
  O  O5  1  0.666667  0.333333  0.103513  1
  O  O6  1  0.333333  0.666667  0.896487  1
