# generated using pymatgen
data_CoSn3
_symmetry_space_group_name_H-M   'P 1'
_cell_length_a   17.62073015
_cell_length_b   17.62073015
_cell_length_c   17.62073015
_cell_angle_alpha   159.40038213
_cell_angle_beta   159.40038213
_cell_angle_gamma   29.29361955
_symmetry_Int_Tables_number   1
_chemical_formula_structural   CoSn3
_chemical_formula_sum   'Co8 Sn24'
_cell_volume   676.88333798
_cell_formula_units_Z   8
loop_
 _symmetry_equiv_pos_site_id
 _symmetry_equiv_pos_as_xyz
  1  'x, y, z'
loop_
 _atom_site_type_symbol
 _atom_site_label
 _atom_site_symmetry_multiplicity
 _atom_site_fract_x
 _atom_site_fract_y
 _atom_site_fract_z
 _atom_site_occupancy
  Co  Co0  1  0.210151  0.710151  0.500000  1
  Co  Co1  1  0.039849  0.039849  0.000000  1
  Co  Co2  1  0.789849  0.289849  0.500000  1
  Co  Co3  1  0.460151  0.460151  0.000000  1
  Co  Co4  1  0.539849  0.539849  0.000000  1
  Co  Co5  1  0.710151  0.210151  0.500000  1
  Co  Co6  1  0.960151  0.960151  0.000000  1
  Co  Co7  1  0.289849  0.789849  0.500000  1
  Sn  Sn8  1  0.164586  0.335414  0.500000  1
  Sn  Sn9  1  0.835414  0.664586  0.500000  1
  Sn  Sn10  1  0.414586  0.414586  0.329173  1
  Sn  Sn11  1  0.085414  0.085414  0.670827  1
  Sn  Sn12  1  0.585414  0.914586  1.000000  1
  Sn  Sn13  1  0.914586  0.585414  0.000000  1
  Sn  Sn14  1  0.335414  0.835414  0.170827  1
  Sn  Sn15  1  0.664586  0.164586  0.829173  1
  Sn  Sn16  1  0.097563  0.599528  0.862382  1
  Sn  Sn17  1  0.737145  0.235181  0.137618  1
  Sn  Sn18  1  0.512855  0.150472  0.998035  1
  Sn  Sn19  1  0.152437  0.514819  0.001965  1
  Sn  Sn20  1  0.264819  0.762855  0.862382  1
  Sn  Sn21  1  0.900472  0.402437  0.137618  1
  Sn  Sn22  1  0.985181  0.347563  0.998035  1
  Sn  Sn23  1  0.349528  0.987145  0.001965  1
  Sn  Sn24  1  0.652437  0.650472  0.637618  1
  Sn  Sn25  1  0.012855  0.014819  0.362382  1
  Sn  Sn26  1  0.237145  0.099528  0.501965  1
  Sn  Sn27  1  0.597563  0.735181  0.498035  1
  Sn  Sn28  1  0.485181  0.487145  0.637618  1
  Sn  Sn29  1  0.849528  0.847563  0.362382  1
  Sn  Sn30  1  0.764819  0.902437  0.501965  1
  Sn  Sn31  1  0.400472  0.262855  0.498035  1
