# generated using pymatgen
data_Co3(OF2)2
_symmetry_space_group_name_H-M   'P 1'
_cell_length_a   3.12312419
_cell_length_b   4.71468803
_cell_length_c   14.05406709
_cell_angle_alpha   90.00000000
_cell_angle_beta   90.00000000
_cell_angle_gamma   90.00000000
_symmetry_Int_Tables_number   1
_chemical_formula_structural   Co3(OF2)2
_chemical_formula_sum   'Co6 O4 F8'
_cell_volume   206.93990128
_cell_formula_units_Z   2
loop_
 _symmetry_equiv_pos_site_id
 _symmetry_equiv_pos_as_xyz
  1  'x, y, z'
loop_
 _atom_site_type_symbol
 _atom_site_label
 _atom_site_symmetry_multiplicity
 _atom_site_fract_x
 _atom_site_fract_y
 _atom_site_fract_z
 _atom_site_occupancy
  Co  Co0  1  0.500000  0.427863  0.840704  1
  Co  Co1  1  0.500000  0.572137  0.159296  1
  Co  Co2  1  0.500000  0.500000  0.500000  1
  Co  Co3  1  0.000000  0.000000  0.000000  1
  Co  Co4  1  0.000000  0.072137  0.340704  1
  Co  Co5  1  0.000000  0.927863  0.659296  1
  O  O6  1  0.000000  0.737589  0.098240  1
  O  O7  1  0.500000  0.762411  0.598240  1
  O  O8  1  0.500000  0.237589  0.401760  1
  O  O9  1  0.000000  0.262411  0.901760  1
  F  F10  1  0.000000  0.629633  0.768907  1
  F  F11  1  0.000000  0.717694  0.433848  1
  F  F12  1  0.500000  0.782306  0.933848  1
  F  F13  1  0.500000  0.870367  0.268907  1
  F  F14  1  0.500000  0.217694  0.066152  1
  F  F15  1  0.500000  0.129633  0.731093  1
  F  F16  1  0.000000  0.370367  0.231093  1
  F  F17  1  0.000000  0.282306  0.566152  1
