# generated using pymatgen
data_CuHO2
_symmetry_space_group_name_H-M   'P 1'
_cell_length_a   6.14701452
_cell_length_b   6.14701452
_cell_length_c   4.03071085
_cell_angle_alpha   90.00000000
_cell_angle_beta   90.00000000
_cell_angle_gamma   152.05019822
_symmetry_Int_Tables_number   1
_chemical_formula_structural   CuHO2
_chemical_formula_sum   'Cu2 H2 O4'
_cell_volume   71.38435627
_cell_formula_units_Z   2
loop_
 _symmetry_equiv_pos_site_id
 _symmetry_equiv_pos_as_xyz
  1  'x, y, z'
loop_
 _atom_site_type_symbol
 _atom_site_label
 _atom_site_symmetry_multiplicity
 _atom_site_fract_x
 _atom_site_fract_y
 _atom_site_fract_z
 _atom_site_occupancy
  Cu  Cu0  1  0.178226  0.821774  0.542457  1
  Cu  Cu1  1  0.821774  0.178226  0.042457  1
  H  H2  1  0.518322  0.481678  0.736547  1
  H  H3  1  0.481678  0.518322  0.236547  1
  O  O4  1  0.430885  0.569115  0.031633  1
  O  O5  1  0.569115  0.430885  0.531633  1
  O  O6  1  0.790205  0.209795  0.540153  1
  O  O7  1  0.209795  0.790205  0.040153  1
