# generated using pymatgen
data_K3IO5
_symmetry_space_group_name_H-M   'P 1'
_cell_length_a   6.31949033
_cell_length_b   6.31949033
_cell_length_c   8.33673630
_cell_angle_alpha   90.00000000
_cell_angle_beta   90.00000000
_cell_angle_gamma   90.00000000
_symmetry_Int_Tables_number   1
_chemical_formula_structural   K3IO5
_chemical_formula_sum   'K6 I2 O10'
_cell_volume   332.93555099
_cell_formula_units_Z   2
loop_
 _symmetry_equiv_pos_site_id
 _symmetry_equiv_pos_as_xyz
  1  'x, y, z'
loop_
 _atom_site_type_symbol
 _atom_site_label
 _atom_site_symmetry_multiplicity
 _atom_site_fract_x
 _atom_site_fract_y
 _atom_site_fract_z
 _atom_site_occupancy
  K  K0  1  0.000000  0.000000  0.500000  1
  K  K1  1  0.500000  0.500000  0.500000  1
  K  K2  1  0.000000  0.000000  0.000000  1
  K  K3  1  0.500000  0.500000  0.000000  1
  K  K4  1  0.000000  0.500000  0.218412  1
  K  K5  1  0.500000  0.000000  0.781588  1
  I  I6  1  0.000000  0.500000  0.742530  1
  I  I7  1  0.500000  0.000000  0.257470  1
  O  O8  1  0.794311  0.294311  0.788612  1
  O  O9  1  0.205689  0.705689  0.788612  1
  O  O10  1  0.294311  0.205689  0.211388  1
  O  O11  1  0.705689  0.794311  0.211388  1
  O  O12  1  0.705689  0.205689  0.211388  1
  O  O13  1  0.294311  0.794311  0.211388  1
  O  O14  1  0.794311  0.705689  0.788612  1
  O  O15  1  0.205689  0.294311  0.788612  1
  O  O16  1  0.000000  0.500000  0.523788  1
  O  O17  1  0.500000  0.000000  0.476212  1
