# generated using pymatgen
data_CO2
_symmetry_space_group_name_H-M   'P 1'
_cell_length_a   3.70241310
_cell_length_b   4.09763096
_cell_length_c   10.03560490
_cell_angle_alpha   90.00000000
_cell_angle_beta   97.61677777
_cell_angle_gamma   90.00000000
_symmetry_Int_Tables_number   1
_chemical_formula_structural   CO2
_chemical_formula_sum   'C4 O8'
_cell_volume   150.90804273
_cell_formula_units_Z   4
loop_
 _symmetry_equiv_pos_site_id
 _symmetry_equiv_pos_as_xyz
  1  'x, y, z'
loop_
 _atom_site_type_symbol
 _atom_site_label
 _atom_site_symmetry_multiplicity
 _atom_site_fract_x
 _atom_site_fract_y
 _atom_site_fract_z
 _atom_site_occupancy
  C  C0  1  0.093125  0.143077  0.315840  1
  C  C1  1  0.906875  0.643077  0.184160  1
  C  C2  1  0.906875  0.856923  0.684160  1
  C  C3  1  0.093125  0.356923  0.815840  1
  O  O4  1  0.243691  0.242449  0.420130  1
  O  O5  1  0.756309  0.742449  0.079870  1
  O  O6  1  0.756309  0.757551  0.579870  1
  O  O7  1  0.243691  0.257551  0.920130  1
  O  O8  1  0.929789  0.304222  0.204680  1
  O  O9  1  0.070211  0.804222  0.295320  1
  O  O10  1  0.070211  0.695778  0.795320  1
  O  O11  1  0.929789  0.195778  0.704680  1
