# generated using pymatgen
data_Li(BH)5
_symmetry_space_group_name_H-M   'P 1'
_cell_length_a   7.08784266
_cell_length_b   7.08784266
_cell_length_c   14.98321426
_cell_angle_alpha   90.00000000
_cell_angle_beta   90.00000000
_cell_angle_gamma   120.00000000
_symmetry_Int_Tables_number   1
_chemical_formula_structural   Li(BH)5
_chemical_formula_sum   'Li6 B30 H30'
_cell_volume   651.87414894
_cell_formula_units_Z   6
loop_
 _symmetry_equiv_pos_site_id
 _symmetry_equiv_pos_as_xyz
  1  'x, y, z'
loop_
 _atom_site_type_symbol
 _atom_site_label
 _atom_site_symmetry_multiplicity
 _atom_site_fract_x
 _atom_site_fract_y
 _atom_site_fract_z
 _atom_site_occupancy
  Li  Li0  1  0.500000  0.500000  0.425806  1
  Li  Li1  1  0.000000  0.500000  0.092472  1
  Li  Li2  1  0.500000  0.000000  0.759139  1
  Li  Li3  1  0.000000  0.500000  0.574194  1
  Li  Li4  1  0.500000  0.500000  0.907528  1
  Li  Li5  1  0.500000  0.000000  0.240861  1
  B  B6  1  0.302432  0.651216  0.333333  1
  B  B7  1  0.348784  0.697568  0.000000  1
  B  B8  1  0.348784  0.651216  0.666667  1
  B  B9  1  0.697568  0.348784  0.333333  1
  B  B10  1  0.651216  0.302432  0.000000  1
  B  B11  1  0.651216  0.348784  0.666667  1
  B  B12  1  0.123884  0.393685  0.366191  1
  B  B13  1  0.269801  0.876116  0.032858  1
  B  B14  1  0.606315  0.730199  0.699525  1
  B  B15  1  0.876116  0.606315  0.366191  1
  B  B16  1  0.730199  0.123884  0.032858  1
  B  B17  1  0.393685  0.269801  0.699525  1
  B  B18  1  0.730199  0.606315  0.633809  1
  B  B19  1  0.393685  0.123884  0.967142  1
  B  B20  1  0.876116  0.269801  0.300475  1
  B  B21  1  0.269801  0.393685  0.633809  1
  B  B22  1  0.606315  0.876116  0.967142  1
  B  B23  1  0.123884  0.730199  0.300475  1
  B  B24  1  0.120577  0.630290  0.413318  1
  B  B25  1  0.509713  0.879423  0.079985  1
  B  B26  1  0.369710  0.490287  0.746651  1
  B  B27  1  0.879423  0.369710  0.413318  1
  B  B28  1  0.490287  0.120577  0.079985  1
  B  B29  1  0.630290  0.509713  0.746651  1
  B  B30  1  0.490287  0.369710  0.586682  1
  B  B31  1  0.630290  0.120577  0.920015  1
  B  B32  1  0.879423  0.509713  0.253349  1
  B  B33  1  0.509713  0.630290  0.586682  1
  B  B34  1  0.369710  0.879423  0.920015  1
  B  B35  1  0.120577  0.490287  0.253349  1
  H  H36  1  0.499039  0.749519  0.333333  1
  H  H37  1  0.250481  0.500961  0.000000  1
  H  H38  1  0.250481  0.749519  0.666667  1
  H  H39  1  0.500961  0.250481  0.333333  1
  H  H40  1  0.749519  0.499039  0.000000  1
  H  H41  1  0.749519  0.250481  0.666667  1
  H  H42  1  0.181622  0.272484  0.395764  1
  H  H43  1  0.090862  0.818378  0.062431  1
  H  H44  1  0.727516  0.909138  0.729098  1
  H  H45  1  0.818378  0.727516  0.395764  1
  H  H46  1  0.909138  0.181622  0.062431  1
  H  H47  1  0.272484  0.090862  0.729098  1
  H  H48  1  0.909138  0.727516  0.604236  1
  H  H49  1  0.272484  0.181622  0.937569  1
  H  H50  1  0.818378  0.090862  0.270902  1
  H  H51  1  0.090862  0.272484  0.604236  1
  H  H52  1  0.727516  0.818378  0.937569  1
  H  H53  1  0.181622  0.909138  0.270902  1
  H  H54  1  0.192356  0.729800  0.481698  1
  H  H55  1  0.537443  0.807644  0.148365  1
  H  H56  1  0.270200  0.462557  0.815032  1
  H  H57  1  0.807644  0.270200  0.481698  1
  H  H58  1  0.462557  0.192356  0.148365  1
  H  H59  1  0.729800  0.537443  0.815032  1
  H  H60  1  0.462557  0.270200  0.518302  1
  H  H61  1  0.729800  0.192356  0.851635  1
  H  H62  1  0.807644  0.537443  0.184968  1
  H  H63  1  0.537443  0.729800  0.518302  1
  H  H64  1  0.270200  0.807644  0.851635  1
  H  H65  1  0.192356  0.462557  0.184968  1
