# generated using pymatgen
data_Sm2(CuAs)3
_symmetry_space_group_name_H-M   'P 1'
_cell_length_a   4.03825331
_cell_length_b   11.07319115
_cell_length_c   13.41960799
_cell_angle_alpha   90.00000000
_cell_angle_beta   90.00000000
_cell_angle_gamma   90.00000000
_symmetry_Int_Tables_number   1
_chemical_formula_structural   Sm2(CuAs)3
_chemical_formula_sum   'Sm8 Cu12 As12'
_cell_volume   600.07589866
_cell_formula_units_Z   4
loop_
 _symmetry_equiv_pos_site_id
 _symmetry_equiv_pos_as_xyz
  1  'x, y, z'
loop_
 _atom_site_type_symbol
 _atom_site_label
 _atom_site_symmetry_multiplicity
 _atom_site_fract_x
 _atom_site_fract_y
 _atom_site_fract_z
 _atom_site_occupancy
  Sm  Sm0  1  0.250000  0.930458  0.796896  1
  Sm  Sm1  1  0.750000  0.430458  0.703104  1
  Sm  Sm2  1  0.250000  0.569542  0.296896  1
  Sm  Sm3  1  0.750000  0.069542  0.203104  1
  Sm  Sm4  1  0.250000  0.842109  0.503693  1
  Sm  Sm5  1  0.750000  0.342109  0.996307  1
  Sm  Sm6  1  0.250000  0.657891  0.003693  1
  Sm  Sm7  1  0.750000  0.157891  0.496307  1
  Cu  Cu8  1  0.250000  0.392987  0.513383  1
  Cu  Cu9  1  0.750000  0.892987  0.986617  1
  Cu  Cu10  1  0.250000  0.107013  0.013383  1
  Cu  Cu11  1  0.750000  0.607013  0.486617  1
  Cu  Cu12  1  0.250000  0.276223  0.333301  1
  Cu  Cu13  1  0.750000  0.776223  0.166699  1
  Cu  Cu14  1  0.250000  0.223777  0.833301  1
  Cu  Cu15  1  0.750000  0.723777  0.666699  1
  Cu  Cu16  1  0.250000  0.858219  0.275939  1
  Cu  Cu17  1  0.750000  0.358219  0.224061  1
  Cu  Cu18  1  0.250000  0.641781  0.775939  1
  Cu  Cu19  1  0.750000  0.141781  0.724061  1
  As  As20  1  0.250000  0.234836  0.644717  1
  As  As21  1  0.750000  0.734836  0.855283  1
  As  As22  1  0.250000  0.265164  0.144717  1
  As  As23  1  0.750000  0.765164  0.355283  1
  As  As24  1  0.250000  0.599898  0.596362  1
  As  As25  1  0.750000  0.099898  0.903638  1
  As  As26  1  0.250000  0.900102  0.096362  1
  As  As27  1  0.750000  0.400102  0.403638  1
  As  As28  1  0.250000  0.057081  0.365881  1
  As  As29  1  0.750000  0.557081  0.134119  1
  As  As30  1  0.250000  0.442919  0.865881  1
  As  As31  1  0.750000  0.942919  0.634119  1
