# generated using pymatgen
data_KAgO2
_symmetry_space_group_name_H-M   'P 1'
_cell_length_a   5.55936994
_cell_length_b   5.55936994
_cell_length_c   5.90351007
_cell_angle_alpha   78.31090730
_cell_angle_beta   101.68909270
_cell_angle_gamma   76.01775130
_symmetry_Int_Tables_number   1
_chemical_formula_structural   KAgO2
_chemical_formula_sum   'K2 Ag2 O4'
_cell_volume   167.19402219
_cell_formula_units_Z   2
loop_
 _symmetry_equiv_pos_site_id
 _symmetry_equiv_pos_as_xyz
  1  'x, y, z'
loop_
 _atom_site_type_symbol
 _atom_site_label
 _atom_site_symmetry_multiplicity
 _atom_site_fract_x
 _atom_site_fract_y
 _atom_site_fract_z
 _atom_site_occupancy
  K  K0  1  0.859300  0.859300  0.750000  1
  K  K1  1  0.140700  0.140700  0.250000  1
  Ag  Ag2  1  0.500000  0.500000  0.000000  1
  Ag  Ag3  1  0.500000  0.500000  0.500000  1
  O  O4  1  0.242000  0.654120  0.171390  1
  O  O5  1  0.758000  0.345880  0.828610  1
  O  O6  1  0.654120  0.242000  0.328610  1
  O  O7  1  0.345880  0.758000  0.671390  1
