# generated using pymatgen
data_Rb3Mg
_symmetry_space_group_name_H-M   'P 1'
_cell_length_a   8.55258936
_cell_length_b   8.55258936
_cell_length_c   8.55258936
_cell_angle_alpha   145.76094759
_cell_angle_beta   128.56539752
_cell_angle_gamma   63.24959382
_symmetry_Int_Tables_number   1
_chemical_formula_structural   Rb3Mg
_chemical_formula_sum   'Rb3 Mg1'
_cell_volume   272.17365481
_cell_formula_units_Z   1
loop_
 _symmetry_equiv_pos_site_id
 _symmetry_equiv_pos_as_xyz
  1  'x, y, z'
loop_
 _atom_site_type_symbol
 _atom_site_label
 _atom_site_symmetry_multiplicity
 _atom_site_fract_x
 _atom_site_fract_y
 _atom_site_fract_z
 _atom_site_occupancy
  Rb  Rb0  1  0.759484  0.708633  0.050851  1
  Rb  Rb1  1  0.090383  0.500000  0.590383  1
  Rb  Rb2  1  0.342219  0.291367  0.050851  1
  Mg  Mg3  1  0.641244  0.000000  0.641244  1
