# generated using pymatgen
data_RbTlBr3
_symmetry_space_group_name_H-M   'P 1'
_cell_length_a   5.83605521
_cell_length_b   5.83605521
_cell_length_c   5.83303366
_cell_angle_alpha   89.96608024
_cell_angle_beta   90.03391976
_cell_angle_gamma   89.99256054
_symmetry_Int_Tables_number   1
_chemical_formula_structural   RbTlBr3
_chemical_formula_sum   'Rb1 Tl1 Br3'
_cell_volume   198.67037424
_cell_formula_units_Z   1
loop_
 _symmetry_equiv_pos_site_id
 _symmetry_equiv_pos_as_xyz
  1  'x, y, z'
loop_
 _atom_site_type_symbol
 _atom_site_label
 _atom_site_symmetry_multiplicity
 _atom_site_fract_x
 _atom_site_fract_y
 _atom_site_fract_z
 _atom_site_occupancy
  Rb  Rb0  1  0.003043  0.996957  0.001114  1
  Tl  Tl1  1  0.505146  0.494854  0.517228  1
  Br  Br2  1  0.504635  0.998901  0.514676  1
  Br  Br3  1  0.491715  0.508285  0.015967  1
  Br  Br4  1  0.001099  0.495365  0.514676  1
