# generated using pymatgen
data_KP2AuS7
_symmetry_space_group_name_H-M   'P 1'
_cell_length_a   6.32102441
_cell_length_b   6.32102441
_cell_length_c   15.26320400
_cell_angle_alpha   89.92448328
_cell_angle_beta   90.07551672
_cell_angle_gamma   79.39134851
_symmetry_Int_Tables_number   1
_chemical_formula_structural   KP2AuS7
_chemical_formula_sum   'K2 P4 Au2 S14'
_cell_volume   599.42160992
_cell_formula_units_Z   2
loop_
 _symmetry_equiv_pos_site_id
 _symmetry_equiv_pos_as_xyz
  1  'x, y, z'
loop_
 _atom_site_type_symbol
 _atom_site_label
 _atom_site_symmetry_multiplicity
 _atom_site_fract_x
 _atom_site_fract_y
 _atom_site_fract_z
 _atom_site_occupancy
  K  K0  1  0.757373  0.757373  0.750000  1
  K  K1  1  0.242627  0.242627  0.250000  1
  P  P2  1  0.351220  0.320907  0.860166  1
  P  P3  1  0.320907  0.351220  0.639834  1
  P  P4  1  0.648780  0.679093  0.139834  1
  P  P5  1  0.679093  0.648780  0.360166  1
  Au  Au6  1  1.000000  0.500000  0.000000  1
  Au  Au7  1  0.500000  0.000000  0.500000  1
  S  S8  1  0.663983  0.274721  0.843544  1
  S  S9  1  0.336017  0.725279  0.156456  1
  S  S10  1  0.274721  0.663983  0.656456  1
  S  S11  1  0.725279  0.336017  0.343544  1
  S  S12  1  0.200479  0.635834  0.887438  1
  S  S13  1  0.635834  0.200479  0.612563  1
  S  S14  1  0.799521  0.364166  0.112562  1
  S  S15  1  0.364166  0.799521  0.387438  1
  S  S16  1  0.230002  0.168609  0.964298  1
  S  S17  1  0.168609  0.230002  0.535702  1
  S  S18  1  0.769998  0.831391  0.035702  1
  S  S19  1  0.831391  0.769998  0.464298  1
  S  S20  1  0.197178  0.197178  0.750000  1
  S  S21  1  0.802822  0.802822  0.250000  1
