# generated using pymatgen
data_LiMg
_symmetry_space_group_name_H-M   'P 1'
_cell_length_a   5.77469064
_cell_length_b   5.77469064
_cell_length_c   7.01947320
_cell_angle_alpha   72.42430734
_cell_angle_beta   107.57569266
_cell_angle_gamma   146.52423791
_symmetry_Int_Tables_number   1
_chemical_formula_structural   LiMg
_chemical_formula_sum   'Li3 Mg3'
_cell_volume   122.52720457
_cell_formula_units_Z   3
loop_
 _symmetry_equiv_pos_site_id
 _symmetry_equiv_pos_as_xyz
  1  'x, y, z'
loop_
 _atom_site_type_symbol
 _atom_site_label
 _atom_site_symmetry_multiplicity
 _atom_site_fract_x
 _atom_site_fract_y
 _atom_site_fract_z
 _atom_site_occupancy
  Li  Li0  1  0.968281  0.031719  0.947514  1
  Li  Li1  1  0.631245  0.368755  0.268379  1
  Li  Li2  1  0.982260  0.017740  0.442934  1
  Mg  Mg3  1  0.310289  0.689711  0.126623  1
  Mg  Mg4  1  0.309835  0.690165  0.601001  1
  Mg  Mg5  1  0.631424  0.368576  0.780216  1
