# generated using pymatgen
data_Ca3ReO6
_symmetry_space_group_name_H-M   'P 1'
_cell_length_a   5.57459140
_cell_length_b   5.85850317
_cell_length_c   9.80476096
_cell_angle_alpha   90.00000000
_cell_angle_beta   124.57993464
_cell_angle_gamma   90.00000000
_symmetry_Int_Tables_number   1
_chemical_formula_structural   Ca3ReO6
_chemical_formula_sum   'Ca6 Re2 O12'
_cell_volume   263.64126848
_cell_formula_units_Z   2
loop_
 _symmetry_equiv_pos_site_id
 _symmetry_equiv_pos_as_xyz
  1  'x, y, z'
loop_
 _atom_site_type_symbol
 _atom_site_label
 _atom_site_symmetry_multiplicity
 _atom_site_fract_x
 _atom_site_fract_y
 _atom_site_fract_z
 _atom_site_occupancy
  Ca  Ca0  1  0.727437  0.558613  0.243437  1
  Ca  Ca1  1  0.272563  0.058613  0.256563  1
  Ca  Ca2  1  0.500000  0.500000  0.500000  1
  Ca  Ca3  1  0.500000  0.000000  0.000000  1
  Ca  Ca4  1  0.727437  0.941387  0.743437  1
  Ca  Ca5  1  0.272563  0.441387  0.756563  1
  Re  Re6  1  0.000000  0.000000  0.500000  1
  Re  Re7  1  0.000000  0.500000  0.000000  1
  O  O8  1  0.888476  0.552618  0.774284  1
  O  O9  1  0.111524  0.052618  0.725716  1
  O  O10  1  0.111524  0.447382  0.225716  1
  O  O11  1  0.888476  0.947382  0.274284  1
  O  O12  1  0.237764  0.775609  0.070541  1
  O  O13  1  0.762236  0.275609  0.429459  1
  O  O14  1  0.762236  0.224391  0.929459  1
  O  O15  1  0.237764  0.724391  0.570541  1
  O  O16  1  0.335149  0.176158  0.550334  1
  O  O17  1  0.664851  0.676158  0.949666  1
  O  O18  1  0.664851  0.823842  0.449666  1
  O  O19  1  0.335149  0.323842  0.050334  1
