# generated using pymatgen
data_YbPm3
_symmetry_space_group_name_H-M   'P 1'
_cell_length_a   7.40053053
_cell_length_b   7.40053053
_cell_length_c   5.94180425
_cell_angle_alpha   90.00000000
_cell_angle_beta   90.00000000
_cell_angle_gamma   120.00000000
_symmetry_Int_Tables_number   1
_chemical_formula_structural   YbPm3
_chemical_formula_sum   'Yb2 Pm6'
_cell_volume   281.82186286
_cell_formula_units_Z   2
loop_
 _symmetry_equiv_pos_site_id
 _symmetry_equiv_pos_as_xyz
  1  'x, y, z'
loop_
 _atom_site_type_symbol
 _atom_site_label
 _atom_site_symmetry_multiplicity
 _atom_site_fract_x
 _atom_site_fract_y
 _atom_site_fract_z
 _atom_site_occupancy
  Yb  Yb0  1  0.333333  0.666667  0.750000  1
  Yb  Yb1  1  0.666667  0.333333  0.250000  1
  Pm  Pm2  1  0.164513  0.329027  0.250000  1
  Pm  Pm3  1  0.670973  0.835487  0.250000  1
  Pm  Pm4  1  0.164513  0.835487  0.250000  1
  Pm  Pm5  1  0.835487  0.670973  0.750000  1
  Pm  Pm6  1  0.329027  0.164513  0.750000  1
  Pm  Pm7  1  0.835487  0.164513  0.750000  1
