# generated using pymatgen
data_K3Sb2Au3
_symmetry_space_group_name_H-M   'P 1'
_cell_length_a   8.14549563
_cell_length_b   8.14549563
_cell_length_c   8.14549563
_cell_angle_alpha   45.98522711
_cell_angle_beta   45.98522711
_cell_angle_gamma   45.98522711
_symmetry_Int_Tables_number   1
_chemical_formula_structural   K3Sb2Au3
_chemical_formula_sum   'K3 Sb2 Au3'
_cell_volume   254.94428767
_cell_formula_units_Z   1
loop_
 _symmetry_equiv_pos_site_id
 _symmetry_equiv_pos_as_xyz
  1  'x, y, z'
loop_
 _atom_site_type_symbol
 _atom_site_label
 _atom_site_symmetry_multiplicity
 _atom_site_fract_x
 _atom_site_fract_y
 _atom_site_fract_z
 _atom_site_occupancy
  K  K0  1  0.500000  0.500000  0.500000  1
  K  K1  1  0.080911  0.080911  0.080911  1
  K  K2  1  0.919089  0.919089  0.919089  1
  Sb  Sb3  1  0.757752  0.757752  0.757752  1
  Sb  Sb4  1  0.242248  0.242248  0.242248  1
  Au  Au5  1  0.000000  0.500000  0.500000  1
  Au  Au6  1  0.500000  0.500000  0.000000  1
  Au  Au7  1  0.500000  0.000000  0.500000  1
