# generated using pymatgen
data_H2O
_symmetry_space_group_name_H-M   'P 1'
_cell_length_a   6.53664062
_cell_length_b   6.53664062
_cell_length_c   6.53664062
_cell_angle_alpha   127.15593145
_cell_angle_beta   104.72906621
_cell_angle_gamma   98.14999788
_symmetry_Int_Tables_number   1
_chemical_formula_structural   H2O
_chemical_formula_sum   'H16 O8'
_cell_volume   198.85387354
_cell_formula_units_Z   8
loop_
 _symmetry_equiv_pos_site_id
 _symmetry_equiv_pos_as_xyz
  1  'x, y, z'
loop_
 _atom_site_type_symbol
 _atom_site_label
 _atom_site_symmetry_multiplicity
 _atom_site_fract_x
 _atom_site_fract_y
 _atom_site_fract_z
 _atom_site_occupancy
  H  H0  1  0.601264  0.351264  0.250000  1
  H  H1  1  0.898736  0.648736  0.250000  1
  H  H2  1  0.398736  0.648736  0.750000  1
  H  H3  1  0.101264  0.351264  0.750000  1
  H  H4  1  0.750000  0.250002  0.000002  1
  H  H5  1  0.750000  0.749998  0.499998  1
  H  H6  1  0.250000  0.749998  0.999998  1
  H  H7  1  0.250000  0.250002  0.500002  1
  H  H8  1  0.500000  0.000000  0.500000  1
  H  H9  1  0.000000  0.000000  0.000000  1
  H  H10  1  0.750000  0.500000  0.250000  1
  H  H11  1  0.250000  0.500000  0.750000  1
  H  H12  1  0.500000  0.000000  1.000000  1
  H  H13  1  0.000000  0.000000  0.500000  1
  H  H14  1  0.000000  0.500000  1.000000  1
  H  H15  1  0.500000  0.500000  0.500000  1
  O  O16  1  0.564341  0.181959  0.998902  1
  O  O17  1  0.816944  0.818041  0.382383  1
  O  O18  1  0.935659  0.434561  0.117617  1
  O  O19  1  0.683056  0.565439  0.501098  1
  O  O20  1  0.435659  0.818041  0.001098  1
  O  O21  1  0.183056  0.181959  0.617617  1
  O  O22  1  0.064341  0.565439  0.882383  1
  O  O23  1  0.316944  0.434561  0.498902  1
