# generated using pymatgen
data_RbSnCl3
_symmetry_space_group_name_H-M   'P 1'
_cell_length_a   5.59874082
_cell_length_b   5.59874082
_cell_length_c   5.61290561
_cell_angle_alpha   89.40498738
_cell_angle_beta   90.59501262
_cell_angle_gamma   89.96119565
_symmetry_Int_Tables_number   1
_chemical_formula_structural   RbSnCl3
_chemical_formula_sum   'Rb1 Sn1 Cl3'
_cell_volume   175.92254272
_cell_formula_units_Z   1
loop_
 _symmetry_equiv_pos_site_id
 _symmetry_equiv_pos_as_xyz
  1  'x, y, z'
loop_
 _atom_site_type_symbol
 _atom_site_label
 _atom_site_symmetry_multiplicity
 _atom_site_fract_x
 _atom_site_fract_y
 _atom_site_fract_z
 _atom_site_occupancy
  Rb  Rb0  1  0.009667  0.990333  0.981938  1
  Sn  Sn1  1  0.491213  0.508787  0.520610  1
  Cl  Cl2  1  0.495323  0.504677  0.007531  1
  Cl  Cl3  1  0.990958  0.514570  0.524773  1
  Cl  Cl4  1  0.485430  0.009042  0.524773  1
