# generated using pymatgen
data_Re3Ru
_symmetry_space_group_name_H-M   'P 1'
_cell_length_a   5.23929957
_cell_length_b   5.23929957
_cell_length_c   5.23929957
_cell_angle_alpha   149.38608481
_cell_angle_beta   125.15627927
_cell_angle_gamma   64.12387023
_symmetry_Int_Tables_number   1
_chemical_formula_structural   Re3Ru
_chemical_formula_sum   'Re3 Ru1'
_cell_volume   59.27344332
_cell_formula_units_Z   1
loop_
 _symmetry_equiv_pos_site_id
 _symmetry_equiv_pos_as_xyz
  1  'x, y, z'
loop_
 _atom_site_type_symbol
 _atom_site_label
 _atom_site_symmetry_multiplicity
 _atom_site_fract_x
 _atom_site_fract_y
 _atom_site_fract_z
 _atom_site_occupancy
  Re  Re0  1  0.827707  0.500000  0.327707  1
  Re  Re1  1  0.253493  0.251617  0.001875  1
  Re  Re2  1  0.750258  0.748383  0.001875  1
  Ru  Ru3  1  0.335141  1.000000  0.335141  1
