# generated using pymatgen
data_TlTe3Pt2
_symmetry_space_group_name_H-M   'P 1'
_cell_length_a   8.06862730
_cell_length_b   8.06862730
_cell_length_c   6.06065350
_cell_angle_alpha   90.00000000
_cell_angle_beta   90.00000000
_cell_angle_gamma   120.00000000
_symmetry_Int_Tables_number   1
_chemical_formula_structural   TlTe3Pt2
_chemical_formula_sum   'Tl2 Te6 Pt4'
_cell_volume   341.70347683
_cell_formula_units_Z   2
loop_
 _symmetry_equiv_pos_site_id
 _symmetry_equiv_pos_as_xyz
  1  'x, y, z'
loop_
 _atom_site_type_symbol
 _atom_site_label
 _atom_site_symmetry_multiplicity
 _atom_site_fract_x
 _atom_site_fract_y
 _atom_site_fract_z
 _atom_site_occupancy
  Tl  Tl0  1  0.666667  0.333333  0.688932  1
  Tl  Tl1  1  0.333333  0.666667  0.311068  1
  Te  Te2  1  0.830353  0.169647  0.220027  1
  Te  Te3  1  0.830353  0.660706  0.220027  1
  Te  Te4  1  0.339294  0.169647  0.220027  1
  Te  Te5  1  0.660706  0.830353  0.779973  1
  Te  Te6  1  0.169647  0.830353  0.779973  1
  Te  Te7  1  0.169647  0.339294  0.779973  1
  Pt  Pt8  1  0.000000  0.000000  0.000000  1
  Pt  Pt9  1  0.000000  0.500000  0.000000  1
  Pt  Pt10  1  0.500000  0.000000  0.000000  1
  Pt  Pt11  1  0.500000  0.500000  0.000000  1
