# generated using pymatgen
data_KLi6TaO6
_symmetry_space_group_name_H-M   'P 1'
_cell_length_a   5.38152339
_cell_length_b   5.38152339
_cell_length_c   5.38152339
_cell_angle_alpha   101.19522874
_cell_angle_beta   101.19522874
_cell_angle_gamma   101.19522874
_symmetry_Int_Tables_number   1
_chemical_formula_structural   KLi6TaO6
_chemical_formula_sum   'K1 Li6 Ta1 O6'
_cell_volume   145.56028493
_cell_formula_units_Z   1
loop_
 _symmetry_equiv_pos_site_id
 _symmetry_equiv_pos_as_xyz
  1  'x, y, z'
loop_
 _atom_site_type_symbol
 _atom_site_label
 _atom_site_symmetry_multiplicity
 _atom_site_fract_x
 _atom_site_fract_y
 _atom_site_fract_z
 _atom_site_occupancy
  K  K0  1  0.500000  0.500000  0.500000  1
  Li  Li1  1  0.656517  0.000000  0.343483  1
  Li  Li2  1  0.343483  0.656517  1.000000  1
  Li  Li3  1  0.000000  0.656517  0.343483  1
  Li  Li4  1  0.656517  0.343483  0.000000  1
  Li  Li5  1  0.343483  0.000000  0.656517  1
  Li  Li6  1  0.000000  0.343483  0.656517  1
  Ta  Ta7  1  0.000000  0.000000  0.000000  1
  O  O8  1  0.271037  0.917121  0.271037  1
  O  O9  1  0.917121  0.271037  0.271037  1
  O  O10  1  0.728963  0.082879  0.728963  1
  O  O11  1  0.082879  0.728963  0.728963  1
  O  O12  1  0.728963  0.728963  0.082879  1
  O  O13  1  0.271037  0.271037  0.917121  1
