# generated using pymatgen
data_CuBSe2
_symmetry_space_group_name_H-M   'P 1'
_cell_length_a   6.14948590
_cell_length_b   6.14948590
_cell_length_c   6.14948590
_cell_angle_alpha   128.66107703
_cell_angle_beta   128.66107703
_cell_angle_gamma   75.55652977
_symmetry_Int_Tables_number   1
_chemical_formula_structural   CuBSe2
_chemical_formula_sum   'Cu2 B2 Se4'
_cell_volume   137.95922759
_cell_formula_units_Z   2
loop_
 _symmetry_equiv_pos_site_id
 _symmetry_equiv_pos_as_xyz
  1  'x, y, z'
loop_
 _atom_site_type_symbol
 _atom_site_label
 _atom_site_symmetry_multiplicity
 _atom_site_fract_x
 _atom_site_fract_y
 _atom_site_fract_z
 _atom_site_occupancy
  Cu  Cu0  1  0.250000  0.750000  0.500000  1
  Cu  Cu1  1  0.500000  0.500000  0.000000  1
  B  B2  1  0.750000  0.250000  0.500000  1
  B  B3  1  0.000000  0.000000  0.000000  1
  Se  Se4  1  0.077501  0.125000  0.452501  1
  Se  Se5  1  0.672499  0.625000  0.547499  1
  Se  Se6  1  0.875000  0.327501  0.952501  1
  Se  Se7  1  0.375000  0.922499  0.047499  1
