# generated using pymatgen
data_Mn2S3
_symmetry_space_group_name_H-M   'P 1'
_cell_length_a   6.26300202
_cell_length_b   6.26300202
_cell_length_c   6.26300202
_cell_angle_alpha   54.50392287
_cell_angle_beta   54.50392287
_cell_angle_gamma   54.50392287
_symmetry_Int_Tables_number   1
_chemical_formula_structural   Mn2S3
_chemical_formula_sum   'Mn4 S6'
_cell_volume   151.45518790
_cell_formula_units_Z   2
loop_
 _symmetry_equiv_pos_site_id
 _symmetry_equiv_pos_as_xyz
  1  'x, y, z'
loop_
 _atom_site_type_symbol
 _atom_site_label
 _atom_site_symmetry_multiplicity
 _atom_site_fract_x
 _atom_site_fract_y
 _atom_site_fract_z
 _atom_site_occupancy
  Mn  Mn0  1  0.657959  0.657959  0.657959  1
  Mn  Mn1  1  0.842041  0.842041  0.842041  1
  Mn  Mn2  1  0.157959  0.157959  0.157959  1
  Mn  Mn3  1  0.342041  0.342041  0.342041  1
  S  S4  1  0.250000  0.570074  0.929926  1
  S  S5  1  0.929926  0.250000  0.570074  1
  S  S6  1  0.570074  0.929926  0.250000  1
  S  S7  1  0.429926  0.070074  0.750000  1
  S  S8  1  0.070074  0.750000  0.429926  1
  S  S9  1  0.750000  0.429926  0.070074  1
