# generated using pymatgen
data_Tm3Al2
_symmetry_space_group_name_H-M   'P 1'
_cell_length_a   8.12053600
_cell_length_b   8.12053600
_cell_length_c   7.49716100
_cell_angle_alpha   90.00000000
_cell_angle_beta   90.00000000
_cell_angle_gamma   90.00000000
_symmetry_Int_Tables_number   1
_chemical_formula_structural   Tm3Al2
_chemical_formula_sum   'Tm12 Al8'
_cell_volume   494.38607448
_cell_formula_units_Z   4
loop_
 _symmetry_equiv_pos_site_id
 _symmetry_equiv_pos_as_xyz
  1  'x, y, z'
loop_
 _atom_site_type_symbol
 _atom_site_label
 _atom_site_symmetry_multiplicity
 _atom_site_fract_x
 _atom_site_fract_y
 _atom_site_fract_z
 _atom_site_occupancy
  Tm  Tm0  1  0.500000  0.000000  0.250000  1
  Tm  Tm1  1  0.000000  0.500000  0.250000  1
  Tm  Tm2  1  0.000000  0.500000  0.750000  1
  Tm  Tm3  1  0.500000  0.000000  0.750000  1
  Tm  Tm4  1  0.349284  0.349284  0.000000  1
  Tm  Tm5  1  0.650716  0.650716  0.000000  1
  Tm  Tm6  1  0.150716  0.849284  0.500000  1
  Tm  Tm7  1  0.849284  0.150716  0.500000  1
  Tm  Tm8  1  0.796949  0.203051  0.000000  1
  Tm  Tm9  1  0.203051  0.796949  0.000000  1
  Tm  Tm10  1  0.703051  0.703051  0.500000  1
  Tm  Tm11  1  0.296949  0.296949  0.500000  1
  Al  Al12  1  0.119179  0.119179  0.196330  1
  Al  Al13  1  0.880821  0.880821  0.196330  1
  Al  Al14  1  0.380821  0.619179  0.303670  1
  Al  Al15  1  0.619179  0.380821  0.303670  1
  Al  Al16  1  0.880821  0.880821  0.803670  1
  Al  Al17  1  0.119179  0.119179  0.803670  1
  Al  Al18  1  0.380821  0.619179  0.696330  1
  Al  Al19  1  0.619179  0.380821  0.696330  1
