# generated using pymatgen
data_Cd2TeCl2O3
_symmetry_space_group_name_H-M   'P 1'
_cell_length_a   8.37079274
_cell_length_b   11.47085301
_cell_length_c   16.05811201
_cell_angle_alpha   90.00000000
_cell_angle_beta   90.00000000
_cell_angle_gamma   90.00000000
_symmetry_Int_Tables_number   1
_chemical_formula_structural   Cd2TeCl2O3
_chemical_formula_sum   'Cd16 Te8 Cl16 O24'
_cell_volume   1541.90205250
_cell_formula_units_Z   8
loop_
 _symmetry_equiv_pos_site_id
 _symmetry_equiv_pos_as_xyz
  1  'x, y, z'
loop_
 _atom_site_type_symbol
 _atom_site_label
 _atom_site_symmetry_multiplicity
 _atom_site_fract_x
 _atom_site_fract_y
 _atom_site_fract_z
 _atom_site_occupancy
  Cd  Cd0  1  0.895330  0.231299  0.472674  1
  Cd  Cd1  1  0.653992  0.995203  0.383357  1
  Cd  Cd2  1  0.604670  0.768701  0.972674  1
  Cd  Cd3  1  0.895330  0.268701  0.027326  1
  Cd  Cd4  1  0.846008  0.004797  0.883357  1
  Cd  Cd5  1  0.346008  0.004797  0.616643  1
  Cd  Cd6  1  0.104670  0.731299  0.972674  1
  Cd  Cd7  1  0.653992  0.504797  0.116643  1
  Cd  Cd8  1  0.395330  0.268701  0.472674  1
  Cd  Cd9  1  0.846008  0.495203  0.616643  1
  Cd  Cd10  1  0.153992  0.504797  0.383357  1
  Cd  Cd11  1  0.104670  0.768701  0.527326  1
  Cd  Cd12  1  0.395330  0.231299  0.027326  1
  Cd  Cd13  1  0.604670  0.731299  0.527326  1
  Cd  Cd14  1  0.346008  0.495203  0.883357  1
  Cd  Cd15  1  0.153992  0.995203  0.116643  1
  Te  Te16  1  0.286269  0.966504  0.901596  1
  Te  Te17  1  0.786269  0.533496  0.901596  1
  Te  Te18  1  0.713731  0.466504  0.401596  1
  Te  Te19  1  0.213731  0.033496  0.401596  1
  Te  Te20  1  0.713731  0.033496  0.098404  1
  Te  Te21  1  0.286269  0.533496  0.598404  1
  Te  Te22  1  0.213731  0.466504  0.098404  1
  Te  Te23  1  0.786269  0.966504  0.598404  1
  Cl  Cl24  1  0.346725  0.085439  0.211359  1
  Cl  Cl25  1  0.428470  0.212716  0.629394  1
  Cl  Cl26  1  0.153275  0.914561  0.711359  1
  Cl  Cl27  1  0.428470  0.287284  0.870606  1
  Cl  Cl28  1  0.846725  0.414561  0.211359  1
  Cl  Cl29  1  0.653275  0.585439  0.711359  1
  Cl  Cl30  1  0.346725  0.414561  0.288641  1
  Cl  Cl31  1  0.071530  0.787284  0.129394  1
  Cl  Cl32  1  0.653275  0.914561  0.788641  1
  Cl  Cl33  1  0.153275  0.585439  0.788641  1
  Cl  Cl34  1  0.571530  0.787284  0.370606  1
  Cl  Cl35  1  0.071530  0.712716  0.370606  1
  Cl  Cl36  1  0.846725  0.085439  0.288641  1
  Cl  Cl37  1  0.928470  0.287284  0.629394  1
  Cl  Cl38  1  0.928470  0.212716  0.870606  1
  Cl  Cl39  1  0.571530  0.712716  0.129394  1
  O  O40  1  0.197414  0.549546  0.995246  1
  O  O41  1  0.928269  0.417269  0.418226  1
  O  O42  1  0.147122  0.317611  0.060034  1
  O  O43  1  0.302586  0.450454  0.495246  1
  O  O44  1  0.852878  0.682389  0.939966  1
  O  O45  1  0.852878  0.817611  0.560034  1
  O  O46  1  0.571731  0.582731  0.918226  1
  O  O47  1  0.802586  0.049546  0.495246  1
  O  O48  1  0.147122  0.182389  0.439966  1
  O  O49  1  0.352878  0.817611  0.939966  1
  O  O50  1  0.071731  0.917269  0.918226  1
  O  O51  1  0.928269  0.082731  0.081774  1
  O  O52  1  0.697414  0.549546  0.504754  1
  O  O53  1  0.352878  0.682389  0.560034  1
  O  O54  1  0.071731  0.582731  0.581774  1
  O  O55  1  0.302586  0.049546  0.004754  1
  O  O56  1  0.647122  0.317611  0.439966  1
  O  O57  1  0.647122  0.182389  0.060034  1
  O  O58  1  0.802586  0.450454  0.004754  1
  O  O59  1  0.697414  0.950454  0.995246  1
  O  O60  1  0.197414  0.950454  0.504754  1
  O  O61  1  0.428269  0.082731  0.418226  1
  O  O62  1  0.571731  0.917269  0.581774  1
  O  O63  1  0.428269  0.417269  0.081774  1
