# generated using pymatgen
data_HoB4Ru
_symmetry_space_group_name_H-M   'P 1'
_cell_length_a   3.54977532
_cell_length_b   5.94847844
_cell_length_c   11.50563451
_cell_angle_alpha   90.00000000
_cell_angle_beta   90.00000000
_cell_angle_gamma   90.00000000
_symmetry_Int_Tables_number   1
_chemical_formula_structural   HoB4Ru
_chemical_formula_sum   'Ho4 B16 Ru4'
_cell_volume   242.95023949
_cell_formula_units_Z   4
loop_
 _symmetry_equiv_pos_site_id
 _symmetry_equiv_pos_as_xyz
  1  'x, y, z'
loop_
 _atom_site_type_symbol
 _atom_site_label
 _atom_site_symmetry_multiplicity
 _atom_site_fract_x
 _atom_site_fract_y
 _atom_site_fract_z
 _atom_site_occupancy
  Ho  Ho0  1  0.000000  0.628789  0.649830  1
  Ho  Ho1  1  0.000000  0.371211  0.350170  1
  Ho  Ho2  1  0.000000  0.128789  0.850170  1
  Ho  Ho3  1  0.000000  0.871211  0.149830  1
  B  B4  1  0.500000  0.976226  0.691999  1
  B  B5  1  0.500000  0.023774  0.308001  1
  B  B6  1  0.500000  0.476226  0.808001  1
  B  B7  1  0.500000  0.523774  0.191999  1
  B  B8  1  0.500000  0.789586  0.814392  1
  B  B9  1  0.500000  0.210414  0.185608  1
  B  B10  1  0.500000  0.289586  0.685608  1
  B  B11  1  0.500000  0.710414  0.314392  1
  B  B12  1  0.500000  0.864211  0.969783  1
  B  B13  1  0.500000  0.135789  0.030217  1
  B  B14  1  0.500000  0.364211  0.530217  1
  B  B15  1  0.500000  0.635789  0.469783  1
  B  B16  1  0.500000  0.887715  0.546877  1
  B  B17  1  0.500000  0.112285  0.453123  1
  B  B18  1  0.500000  0.387715  0.953123  1
  B  B19  1  0.500000  0.612285  0.046877  1
  Ru  Ru20  1  0.000000  0.640626  0.907235  1
  Ru  Ru21  1  0.000000  0.359374  0.092765  1
  Ru  Ru22  1  0.000000  0.140626  0.592765  1
  Ru  Ru23  1  0.000000  0.859374  0.407235  1
