# generated using pymatgen
data_BaZrSe3
_symmetry_space_group_name_H-M   'P 1'
_cell_length_a   5.28738293
_cell_length_b   5.29639285
_cell_length_c   5.30947762
_cell_angle_alpha   89.89145236
_cell_angle_beta   89.91420688
_cell_angle_gamma   89.96131186
_symmetry_Int_Tables_number   1
_chemical_formula_structural   BaZrSe3
_chemical_formula_sum   'Ba1 Zr1 Se3'
_cell_volume   148.68644754
_cell_formula_units_Z   1
loop_
 _symmetry_equiv_pos_site_id
 _symmetry_equiv_pos_as_xyz
  1  'x, y, z'
loop_
 _atom_site_type_symbol
 _atom_site_label
 _atom_site_symmetry_multiplicity
 _atom_site_fract_x
 _atom_site_fract_y
 _atom_site_fract_z
 _atom_site_occupancy
  Ba  Ba0  1  0.998643  0.998478  0.998673  1
  Zr  Zr1  1  0.476578  0.490069  0.476727  1
  Se  Se2  1  0.488317  0.998506  0.502693  1
  Se  Se3  1  0.983845  0.511636  0.518540  1
  Se  Se4  1  0.492614  0.501310  0.993370  1
