# generated using pymatgen
data_La(PRu)2
_symmetry_space_group_name_H-M   'P 1'
_cell_length_a   6.14790285
_cell_length_b   6.14790285
_cell_length_c   6.14790285
_cell_angle_alpha   141.50290758
_cell_angle_beta   141.50290758
_cell_angle_gamma   55.57829794
_symmetry_Int_Tables_number   1
_chemical_formula_structural   La(PRu)2
_chemical_formula_sum   'La1 P2 Ru2'
_cell_volume   89.36594764
_cell_formula_units_Z   1
loop_
 _symmetry_equiv_pos_site_id
 _symmetry_equiv_pos_as_xyz
  1  'x, y, z'
loop_
 _atom_site_type_symbol
 _atom_site_label
 _atom_site_symmetry_multiplicity
 _atom_site_fract_x
 _atom_site_fract_y
 _atom_site_fract_z
 _atom_site_occupancy
  La  La0  1  0.000000  0.000000  0.000000  1
  P  P1  1  0.642716  0.642716  0.000000  1
  P  P2  1  0.357284  0.357284  0.000000  1
  Ru  Ru3  1  0.750000  0.250000  0.500000  1
  Ru  Ru4  1  0.250000  0.750000  0.500000  1
