# generated using pymatgen
data_Lu3Th
_symmetry_space_group_name_H-M   'P 1'
_cell_length_a   6.02589239
_cell_length_b   6.02589239
_cell_length_c   6.02589239
_cell_angle_alpha   131.08977289
_cell_angle_beta   131.08977289
_cell_angle_gamma   71.67048754
_symmetry_Int_Tables_number   1
_chemical_formula_structural   Lu3Th
_chemical_formula_sum   'Lu3 Th1'
_cell_volume   121.60335528
_cell_formula_units_Z   1
loop_
 _symmetry_equiv_pos_site_id
 _symmetry_equiv_pos_as_xyz
  1  'x, y, z'
loop_
 _atom_site_type_symbol
 _atom_site_label
 _atom_site_symmetry_multiplicity
 _atom_site_fract_x
 _atom_site_fract_y
 _atom_site_fract_z
 _atom_site_occupancy
  Lu  Lu0  1  0.250000  0.750000  0.500000  1
  Lu  Lu1  1  0.750000  0.250000  0.500000  1
  Lu  Lu2  1  0.500000  0.500000  0.000000  1
  Th  Th3  1  0.000000  0.000000  0.000000  1
