# generated using pymatgen
data_NaAuO2
_symmetry_space_group_name_H-M   'P 1'
_cell_length_a   3.73683137
_cell_length_b   3.73683137
_cell_length_c   6.25030001
_cell_angle_alpha   63.49461389
_cell_angle_beta   116.50538611
_cell_angle_gamma   131.52883049
_symmetry_Int_Tables_number   1
_chemical_formula_structural   NaAuO2
_chemical_formula_sum   'Na1 Au1 O2'
_cell_volume   56.97863471
_cell_formula_units_Z   1
loop_
 _symmetry_equiv_pos_site_id
 _symmetry_equiv_pos_as_xyz
  1  'x, y, z'
loop_
 _atom_site_type_symbol
 _atom_site_label
 _atom_site_symmetry_multiplicity
 _atom_site_fract_x
 _atom_site_fract_y
 _atom_site_fract_z
 _atom_site_occupancy
  Na  Na0  1  0.500000  0.500000  0.500000  1
  Au  Au1  1  0.500000  0.500000  0.000000  1
  O  O2  1  0.908460  0.091540  0.752340  1
  O  O3  1  0.091540  0.908460  0.247660  1
