# generated using pymatgen
data_K4Ge2Au7
_symmetry_space_group_name_H-M   'P 1'
_cell_length_a   10.24987365
_cell_length_b   10.24987365
_cell_length_c   10.24987365
_cell_angle_alpha   37.62563631
_cell_angle_beta   37.62563631
_cell_angle_gamma   37.62563631
_symmetry_Int_Tables_number   1
_chemical_formula_structural   K4Ge2Au7
_chemical_formula_sum   'K4 Ge2 Au7'
_cell_volume   360.02555369
_cell_formula_units_Z   1
loop_
 _symmetry_equiv_pos_site_id
 _symmetry_equiv_pos_as_xyz
  1  'x, y, z'
loop_
 _atom_site_type_symbol
 _atom_site_label
 _atom_site_symmetry_multiplicity
 _atom_site_fract_x
 _atom_site_fract_y
 _atom_site_fract_z
 _atom_site_occupancy
  K  K0  1  0.317187  0.317187  0.317187  1
  K  K1  1  0.682813  0.682813  0.682813  1
  K  K2  1  0.189044  0.189044  0.189044  1
  K  K3  1  0.810956  0.810956  0.810956  1
  Ge  Ge4  1  0.454881  0.454881  0.454881  1
  Ge  Ge5  1  0.545119  0.545119  0.545119  1
  Au  Au6  1  0.000000  0.000000  0.000000  1
  Au  Au7  1  0.776781  0.205104  0.776781  1
  Au  Au8  1  0.205104  0.776781  0.776781  1
  Au  Au9  1  0.776781  0.776781  0.205104  1
  Au  Au10  1  0.223219  0.223219  0.794896  1
  Au  Au11  1  0.223219  0.794896  0.223219  1
  Au  Au12  1  0.794896  0.223219  0.223219  1
