# generated using pymatgen
data_LuBr
_symmetry_space_group_name_H-M   'P 1'
_cell_length_a   3.60687380
_cell_length_b   3.60687380
_cell_length_c   9.87174902
_cell_angle_alpha   90.00000000
_cell_angle_beta   90.00000000
_cell_angle_gamma   120.00000000
_symmetry_Int_Tables_number   1
_chemical_formula_structural   LuBr
_chemical_formula_sum   'Lu2 Br2'
_cell_volume   111.22095796
_cell_formula_units_Z   2
loop_
 _symmetry_equiv_pos_site_id
 _symmetry_equiv_pos_as_xyz
  1  'x, y, z'
loop_
 _atom_site_type_symbol
 _atom_site_label
 _atom_site_symmetry_multiplicity
 _atom_site_fract_x
 _atom_site_fract_y
 _atom_site_fract_z
 _atom_site_occupancy
  Lu  Lu0  1  0.333333  0.666667  0.330990  1
  Lu  Lu1  1  0.666667  0.333333  0.830990  1
  Br  Br2  1  0.333333  0.666667  0.044011  1
  Br  Br3  1  0.666667  0.333333  0.544011  1
