# generated using pymatgen
data_Li4TiO4
_symmetry_space_group_name_H-M   'P 1'
_cell_length_a   5.47659698
_cell_length_b   5.47659698
_cell_length_c   6.20379774
_cell_angle_alpha   90.00000000
_cell_angle_beta   90.00000000
_cell_angle_gamma   93.77648551
_symmetry_Int_Tables_number   1
_chemical_formula_structural   Li4TiO4
_chemical_formula_sum   'Li8 Ti2 O8'
_cell_volume   185.66717753
_cell_formula_units_Z   2
loop_
 _symmetry_equiv_pos_site_id
 _symmetry_equiv_pos_as_xyz
  1  'x, y, z'
loop_
 _atom_site_type_symbol
 _atom_site_label
 _atom_site_symmetry_multiplicity
 _atom_site_fract_x
 _atom_site_fract_y
 _atom_site_fract_z
 _atom_site_occupancy
  Li  Li0  1  0.840459  0.159541  0.000000  1
  Li  Li1  1  0.159541  0.840459  0.500000  1
  Li  Li2  1  0.159541  0.840459  0.000000  1
  Li  Li3  1  0.840459  0.159541  0.500000  1
  Li  Li4  1  0.876488  0.583955  0.250000  1
  Li  Li5  1  0.123512  0.416045  0.750000  1
  Li  Li6  1  0.583955  0.876488  0.250000  1
  Li  Li7  1  0.416045  0.123512  0.750000  1
  Ti  Ti8  1  0.340126  0.340126  0.250000  1
  Ti  Ti9  1  0.659874  0.659874  0.750000  1
  O  O10  1  0.664265  0.270007  0.250000  1
  O  O11  1  0.335735  0.729993  0.750000  1
  O  O12  1  0.202941  0.202941  0.002972  1
  O  O13  1  0.797059  0.797059  0.502972  1
  O  O14  1  0.202941  0.202941  0.497028  1
  O  O15  1  0.797059  0.797059  0.997028  1
  O  O16  1  0.270007  0.664265  0.250000  1
  O  O17  1  0.729993  0.335735  0.750000  1
