# generated using pymatgen
data_Yb2Cr2C3
_symmetry_space_group_name_H-M   'P 1'
_cell_length_a   5.39741976
_cell_length_b   5.39741976
_cell_length_c   5.54121537
_cell_angle_alpha   75.31400163
_cell_angle_beta   104.68599837
_cell_angle_gamma   141.57414216
_symmetry_Int_Tables_number   1
_chemical_formula_structural   Yb2Cr2C3
_chemical_formula_sum   'Yb2 Cr2 C3'
_cell_volume   96.64403817
_cell_formula_units_Z   1
loop_
 _symmetry_equiv_pos_site_id
 _symmetry_equiv_pos_as_xyz
  1  'x, y, z'
loop_
 _atom_site_type_symbol
 _atom_site_label
 _atom_site_symmetry_multiplicity
 _atom_site_fract_x
 _atom_site_fract_y
 _atom_site_fract_z
 _atom_site_occupancy
  Yb  Yb0  1  0.400786  0.599214  0.184979  1
  Yb  Yb1  1  0.599214  0.400786  0.815021  1
  Cr  Cr2  1  0.158249  0.841751  0.402558  1
  Cr  Cr3  1  0.841751  0.158249  0.597442  1
  C  C4  1  0.000000  0.000000  0.500000  1
  C  C5  1  0.689112  0.310888  0.293299  1
  C  C6  1  0.310888  0.689112  0.706701  1
