# generated using pymatgen
data_LaWN3
_symmetry_space_group_name_H-M   'P 1'
_cell_length_a   5.86834802
_cell_length_b   3.88798763
_cell_length_c   8.03688881
_cell_angle_alpha   90.00000000
_cell_angle_beta   109.30460973
_cell_angle_gamma   90.00000000
_symmetry_Int_Tables_number   1
_chemical_formula_structural   LaWN3
_chemical_formula_sum   'La2 W2 N6'
_cell_volume   173.06006766
_cell_formula_units_Z   2
loop_
 _symmetry_equiv_pos_site_id
 _symmetry_equiv_pos_as_xyz
  1  'x, y, z'
loop_
 _atom_site_type_symbol
 _atom_site_label
 _atom_site_symmetry_multiplicity
 _atom_site_fract_x
 _atom_site_fract_y
 _atom_site_fract_z
 _atom_site_occupancy
  La  La0  1  0.243651  0.250000  0.185969  1
  La  La1  1  0.756349  0.750000  0.814031  1
  W  W2  1  0.142794  0.250000  0.668584  1
  W  W3  1  0.857206  0.750000  0.331416  1
  N  N4  1  0.041386  0.250000  0.866444  1
  N  N5  1  0.958614  0.750000  0.133556  1
  N  N6  1  0.974979  0.250000  0.390615  1
  N  N7  1  0.025021  0.750000  0.609385  1
  N  N8  1  0.469207  0.250000  0.739030  1
  N  N9  1  0.530793  0.750000  0.260970  1
