# generated using pymatgen
data_PrP5
_symmetry_space_group_name_H-M   'P 1'
_cell_length_a   5.08216905
_cell_length_b   9.63273040
_cell_length_c   5.49476281
_cell_angle_alpha   90.00000000
_cell_angle_beta   102.01833462
_cell_angle_gamma   90.00000000
_symmetry_Int_Tables_number   1
_chemical_formula_structural   PrP5
_chemical_formula_sum   'Pr2 P10'
_cell_volume   263.10087545
_cell_formula_units_Z   2
loop_
 _symmetry_equiv_pos_site_id
 _symmetry_equiv_pos_as_xyz
  1  'x, y, z'
loop_
 _atom_site_type_symbol
 _atom_site_label
 _atom_site_symmetry_multiplicity
 _atom_site_fract_x
 _atom_site_fract_y
 _atom_site_fract_z
 _atom_site_occupancy
  Pr  Pr0  1  0.991330  0.250000  0.651511  1
  Pr  Pr1  1  0.008670  0.750000  0.348489  1
  P  P2  1  0.708259  0.250000  0.098832  1
  P  P3  1  0.291741  0.750000  0.901168  1
  P  P4  1  0.385424  0.409736  0.048261  1
  P  P5  1  0.614576  0.909736  0.951739  1
  P  P6  1  0.614576  0.590264  0.951739  1
  P  P7  1  0.385424  0.090264  0.048261  1
  P  P8  1  0.294538  0.469997  0.402400  1
  P  P9  1  0.705462  0.969997  0.597600  1
  P  P10  1  0.705462  0.530003  0.597600  1
  P  P11  1  0.294538  0.030003  0.402400  1
