# generated using pymatgen
data_KCSN
_symmetry_space_group_name_H-M   'P 1'
_cell_length_a   6.47980507
_cell_length_b   6.51558100
_cell_length_c   11.13901612
_cell_angle_alpha   90.00000000
_cell_angle_beta   90.00000000
_cell_angle_gamma   90.00000000
_symmetry_Int_Tables_number   1
_chemical_formula_structural   KCSN
_chemical_formula_sum   'K4 C4 S4 N4'
_cell_volume   470.28586093
_cell_formula_units_Z   4
loop_
 _symmetry_equiv_pos_site_id
 _symmetry_equiv_pos_as_xyz
  1  'x, y, z'
loop_
 _atom_site_type_symbol
 _atom_site_label
 _atom_site_symmetry_multiplicity
 _atom_site_fract_x
 _atom_site_fract_y
 _atom_site_fract_z
 _atom_site_occupancy
  K  K0  1  0.250000  0.772203  0.886903  1
  K  K1  1  0.250000  0.227797  0.386903  1
  K  K2  1  0.750000  0.772203  0.613097  1
  K  K3  1  0.750000  0.227797  0.113097  1
  C  C4  1  0.250000  0.251557  0.985355  1
  C  C5  1  0.250000  0.748443  0.485355  1
  C  C6  1  0.750000  0.251557  0.514645  1
  C  C7  1  0.750000  0.748443  0.014645  1
  S  S8  1  0.250000  0.900461  0.604132  1
  S  S9  1  0.250000  0.099539  0.104132  1
  S  S10  1  0.750000  0.900461  0.895868  1
  S  S11  1  0.750000  0.099539  0.395868  1
  N  N12  1  0.250000  0.354385  0.897326  1
  N  N13  1  0.250000  0.645615  0.397326  1
  N  N14  1  0.750000  0.354385  0.602674  1
  N  N15  1  0.750000  0.645615  0.102674  1
