# generated using pymatgen
data_Nd(BRh)4
_symmetry_space_group_name_H-M   'P 1'
_cell_length_a   5.37639699
_cell_length_b   5.37639699
_cell_length_c   7.55002490
_cell_angle_alpha   90.00000000
_cell_angle_beta   90.00000000
_cell_angle_gamma   90.00000000
_symmetry_Int_Tables_number   1
_chemical_formula_structural   Nd(BRh)4
_chemical_formula_sum   'Nd2 B8 Rh8'
_cell_volume   218.23833636
_cell_formula_units_Z   2
loop_
 _symmetry_equiv_pos_site_id
 _symmetry_equiv_pos_as_xyz
  1  'x, y, z'
loop_
 _atom_site_type_symbol
 _atom_site_label
 _atom_site_symmetry_multiplicity
 _atom_site_fract_x
 _atom_site_fract_y
 _atom_site_fract_z
 _atom_site_occupancy
  Nd  Nd0  1  0.000000  0.000000  0.000000  1
  Nd  Nd1  1  0.500000  0.500000  0.500000  1
  B  B2  1  0.500000  0.831494  0.848290  1
  B  B3  1  0.500000  0.168506  0.848290  1
  B  B4  1  0.831494  0.500000  0.151710  1
  B  B5  1  0.168506  0.500000  0.151710  1
  B  B6  1  0.331494  0.000000  0.348290  1
  B  B7  1  0.668506  0.000000  0.348290  1
  B  B8  1  0.000000  0.331494  0.651710  1
  B  B9  1  0.000000  0.668506  0.651710  1
  Rh  Rh10  1  0.251270  0.500000  0.856788  1
  Rh  Rh11  1  0.748730  0.500000  0.856788  1
  Rh  Rh12  1  0.500000  0.748730  0.143212  1
  Rh  Rh13  1  0.500000  0.251270  0.143212  1
  Rh  Rh14  1  0.000000  0.751270  0.356788  1
  Rh  Rh15  1  0.000000  0.248730  0.356788  1
  Rh  Rh16  1  0.248730  0.000000  0.643212  1
  Rh  Rh17  1  0.751270  0.000000  0.643212  1
