# generated using pymatgen
data_Tb3Yb
_symmetry_space_group_name_H-M   'P 1'
_cell_length_a   6.24677938
_cell_length_b   6.24677938
_cell_length_c   6.24677938
_cell_angle_alpha   132.01098634
_cell_angle_beta   132.01098634
_cell_angle_gamma   70.21167572
_symmetry_Int_Tables_number   1
_chemical_formula_structural   Tb3Yb
_chemical_formula_sum   'Tb3 Yb1'
_cell_volume   131.90756860
_cell_formula_units_Z   1
loop_
 _symmetry_equiv_pos_site_id
 _symmetry_equiv_pos_as_xyz
  1  'x, y, z'
loop_
 _atom_site_type_symbol
 _atom_site_label
 _atom_site_symmetry_multiplicity
 _atom_site_fract_x
 _atom_site_fract_y
 _atom_site_fract_z
 _atom_site_occupancy
  Tb  Tb0  1  0.250000  0.750000  0.500000  1
  Tb  Tb1  1  0.750000  0.250000  0.500000  1
  Tb  Tb2  1  0.500000  0.500000  0.000000  1
  Yb  Yb3  1  0.000000  0.000000  0.000000  1
