# generated using pymatgen
data_RbBeH3
_symmetry_space_group_name_H-M   'P 1'
_cell_length_a   7.35315259
_cell_length_b   5.89329802
_cell_length_c   9.40290439
_cell_angle_alpha   90.00000000
_cell_angle_beta   106.17612807
_cell_angle_gamma   90.00000000
_symmetry_Int_Tables_number   1
_chemical_formula_structural   RbBeH3
_chemical_formula_sum   'Rb4 Be4 H12'
_cell_volume   391.33672318
_cell_formula_units_Z   4
loop_
 _symmetry_equiv_pos_site_id
 _symmetry_equiv_pos_as_xyz
  1  'x, y, z'
loop_
 _atom_site_type_symbol
 _atom_site_label
 _atom_site_symmetry_multiplicity
 _atom_site_fract_x
 _atom_site_fract_y
 _atom_site_fract_z
 _atom_site_occupancy
  Rb  Rb0  1  0.240144  0.253827  0.223117  1
  Rb  Rb1  1  0.759856  0.753827  0.276883  1
  Rb  Rb2  1  0.240144  0.246173  0.723117  1
  Rb  Rb3  1  0.759856  0.746173  0.776883  1
  Be  Be4  1  0.742085  0.252512  0.004116  1
  Be  Be5  1  0.257915  0.752512  0.495884  1
  Be  Be6  1  0.742085  0.247488  0.504116  1
  Be  Be7  1  0.257915  0.747488  0.995884  1
  H  H8  1  0.760059  0.018058  0.023944  1
  H  H9  1  0.856303  0.398808  0.109222  1
  H  H10  1  0.381438  0.656879  0.124781  1
  H  H11  1  0.618562  0.156879  0.375219  1
  H  H12  1  0.143697  0.898808  0.390778  1
  H  H13  1  0.239941  0.518058  0.476056  1
  H  H14  1  0.760059  0.481942  0.523944  1
  H  H15  1  0.856303  0.101192  0.609222  1
  H  H16  1  0.381438  0.843121  0.624781  1
  H  H17  1  0.618562  0.343121  0.875219  1
  H  H18  1  0.143697  0.601192  0.890778  1
  H  H19  1  0.239941  0.981942  0.976056  1
