# generated using pymatgen
data_TiPN3
_symmetry_space_group_name_H-M   'P 1'
_cell_length_a   6.41533043
_cell_length_b   6.41533043
_cell_length_c   4.99125412
_cell_angle_alpha   81.48670895
_cell_angle_beta   98.51329105
_cell_angle_gamma   94.43882077
_symmetry_Int_Tables_number   1
_chemical_formula_structural   TiPN3
_chemical_formula_sum   'Ti4 P4 N12'
_cell_volume   200.59695840
_cell_formula_units_Z   4
loop_
 _symmetry_equiv_pos_site_id
 _symmetry_equiv_pos_as_xyz
  1  'x, y, z'
loop_
 _atom_site_type_symbol
 _atom_site_label
 _atom_site_symmetry_multiplicity
 _atom_site_fract_x
 _atom_site_fract_y
 _atom_site_fract_z
 _atom_site_occupancy
  Ti  Ti0  1  0.717594  0.717594  0.750000  1
  Ti  Ti1  1  0.895927  0.895927  0.250000  1
  Ti  Ti2  1  0.282406  0.282406  0.250000  1
  Ti  Ti3  1  0.104073  0.104073  0.750000  1
  P  P4  1  0.613748  0.213360  0.794427  1
  P  P5  1  0.786640  0.386252  0.294427  1
  P  P6  1  0.386252  0.786640  0.205573  1
  P  P7  1  0.213360  0.613748  0.705573  1
  N  N8  1  0.580745  0.289482  0.092426  1
  N  N9  1  0.784707  0.025274  0.861345  1
  N  N10  1  0.215293  0.974726  0.138655  1
  N  N11  1  0.710518  0.419255  0.592426  1
  N  N12  1  0.853069  0.614182  0.131457  1
  N  N13  1  0.146931  0.385818  0.868543  1
  N  N14  1  0.614182  0.853069  0.368543  1
  N  N15  1  0.419255  0.710518  0.907574  1
  N  N16  1  0.025274  0.784707  0.638655  1
  N  N17  1  0.385818  0.146931  0.631457  1
  N  N18  1  0.974726  0.215293  0.361345  1
  N  N19  1  0.289482  0.580745  0.407574  1
