# generated using pymatgen
data_TmB4Ru
_symmetry_space_group_name_H-M   'P 1'
_cell_length_a   3.52997551
_cell_length_b   5.92315362
_cell_length_c   11.45350148
_cell_angle_alpha   90.00000000
_cell_angle_beta   90.00000000
_cell_angle_gamma   90.00000000
_symmetry_Int_Tables_number   1
_chemical_formula_structural   TmB4Ru
_chemical_formula_sum   'Tm4 B16 Ru4'
_cell_volume   239.47653474
_cell_formula_units_Z   4
loop_
 _symmetry_equiv_pos_site_id
 _symmetry_equiv_pos_as_xyz
  1  'x, y, z'
loop_
 _atom_site_type_symbol
 _atom_site_label
 _atom_site_symmetry_multiplicity
 _atom_site_fract_x
 _atom_site_fract_y
 _atom_site_fract_z
 _atom_site_occupancy
  Tm  Tm0  1  0.500000  0.129263  0.149783  1
  Tm  Tm1  1  0.500000  0.870737  0.850217  1
  Tm  Tm2  1  0.500000  0.629263  0.350217  1
  Tm  Tm3  1  0.500000  0.370737  0.649783  1
  B  B4  1  0.000000  0.476514  0.192472  1
  B  B5  1  0.000000  0.523486  0.807528  1
  B  B6  1  0.000000  0.976514  0.307528  1
  B  B7  1  0.000000  0.023486  0.692472  1
  B  B8  1  0.000000  0.290654  0.314050  1
  B  B9  1  0.000000  0.709346  0.685950  1
  B  B10  1  0.000000  0.790654  0.185950  1
  B  B11  1  0.000000  0.209346  0.814050  1
  B  B12  1  0.000000  0.364819  0.470023  1
  B  B13  1  0.000000  0.635181  0.529977  1
  B  B14  1  0.000000  0.864819  0.029977  1
  B  B15  1  0.000000  0.135181  0.970023  1
  B  B16  1  0.000000  0.387373  0.047201  1
  B  B17  1  0.000000  0.612627  0.952799  1
  B  B18  1  0.000000  0.887373  0.452799  1
  B  B19  1  0.000000  0.112627  0.547201  1
  Ru  Ru20  1  0.500000  0.141298  0.406994  1
  Ru  Ru21  1  0.500000  0.858702  0.593006  1
  Ru  Ru22  1  0.500000  0.641298  0.093006  1
  Ru  Ru23  1  0.500000  0.358702  0.906994  1
