# generated using pymatgen
data_K3Tl
_symmetry_space_group_name_H-M   'P 1'
_cell_length_a   5.90641992
_cell_length_b   5.90641992
_cell_length_c   5.90641992
_cell_angle_alpha   90.00000000
_cell_angle_beta   90.00000000
_cell_angle_gamma   90.00000000
_symmetry_Int_Tables_number   1
_chemical_formula_structural   K3Tl
_chemical_formula_sum   'K3 Tl1'
_cell_volume   206.05016202
_cell_formula_units_Z   1
loop_
 _symmetry_equiv_pos_site_id
 _symmetry_equiv_pos_as_xyz
  1  'x, y, z'
loop_
 _atom_site_type_symbol
 _atom_site_label
 _atom_site_symmetry_multiplicity
 _atom_site_fract_x
 _atom_site_fract_y
 _atom_site_fract_z
 _atom_site_occupancy
  K  K0  1  0.000000  0.500000  0.500000  1
  K  K1  1  0.500000  0.000000  0.500000  1
  K  K2  1  0.500000  0.500000  0.000000  1
  Tl  Tl3  1  0.000000  0.000000  0.000000  1
