# generated using pymatgen
data_RbSnBr3
_symmetry_space_group_name_H-M   'P 1'
_cell_length_a   4.55318705
_cell_length_b   9.81790158
_cell_length_c   16.57000640
_cell_angle_alpha   90.00000000
_cell_angle_beta   90.00000000
_cell_angle_gamma   90.00000000
_symmetry_Int_Tables_number   1
_chemical_formula_structural   RbSnBr3
_chemical_formula_sum   'Rb4 Sn4 Br12'
_cell_volume   740.72472654
_cell_formula_units_Z   4
loop_
 _symmetry_equiv_pos_site_id
 _symmetry_equiv_pos_as_xyz
  1  'x, y, z'
loop_
 _atom_site_type_symbol
 _atom_site_label
 _atom_site_symmetry_multiplicity
 _atom_site_fract_x
 _atom_site_fract_y
 _atom_site_fract_z
 _atom_site_occupancy
  Rb  Rb0  1  0.750000  0.081044  0.327683  1
  Rb  Rb1  1  0.250000  0.918956  0.672317  1
  Rb  Rb2  1  0.750000  0.581044  0.172317  1
  Rb  Rb3  1  0.250000  0.418956  0.827683  1
  Sn  Sn4  1  0.250000  0.163696  0.062055  1
  Sn  Sn5  1  0.750000  0.836304  0.937945  1
  Sn  Sn6  1  0.250000  0.663696  0.437945  1
  Sn  Sn7  1  0.750000  0.336304  0.562055  1
  Br  Br8  1  0.750000  0.337950  0.998278  1
  Br  Br9  1  0.250000  0.662050  0.001722  1
  Br  Br10  1  0.750000  0.837950  0.501722  1
  Br  Br11  1  0.250000  0.162050  0.498278  1
  Br  Br12  1  0.250000  0.023265  0.883456  1
  Br  Br13  1  0.750000  0.976735  0.116544  1
  Br  Br14  1  0.250000  0.523265  0.616544  1
  Br  Br15  1  0.750000  0.476735  0.383456  1
  Br  Br16  1  0.250000  0.297237  0.211732  1
  Br  Br17  1  0.750000  0.702763  0.788268  1
  Br  Br18  1  0.250000  0.797237  0.288268  1
  Br  Br19  1  0.750000  0.202763  0.711732  1
