# generated using pymatgen
data_Li2Mn4P4O15
_symmetry_space_group_name_H-M   'P 1'
_cell_length_a   8.99570075
_cell_length_b   8.99570075
_cell_length_c   18.55982588
_cell_angle_alpha   83.39899739
_cell_angle_beta   96.60100261
_cell_angle_gamma   72.80195314
_symmetry_Int_Tables_number   1
_chemical_formula_structural   Li2Mn4P4O15
_chemical_formula_sum   'Li8 Mn16 P16 O60'
_cell_volume   1407.58091465
_cell_formula_units_Z   4
loop_
 _symmetry_equiv_pos_site_id
 _symmetry_equiv_pos_as_xyz
  1  'x, y, z'
loop_
 _atom_site_type_symbol
 _atom_site_label
 _atom_site_symmetry_multiplicity
 _atom_site_fract_x
 _atom_site_fract_y
 _atom_site_fract_z
 _atom_site_occupancy
  Li  Li0  1  0.488412  0.024920  0.242434  1
  Li  Li1  1  0.314817  0.531987  0.056483  1
  Li  Li2  1  0.531987  0.314817  0.443517  1
  Li  Li3  1  0.975080  0.511588  0.742434  1
  Li  Li4  1  0.024920  0.488412  0.257566  1
  Li  Li5  1  0.468013  0.685183  0.556483  1
  Li  Li6  1  0.685183  0.468013  0.943517  1
  Li  Li7  1  0.511588  0.975080  0.757566  1
  Mn  Mn8  1  0.952703  0.150768  0.430672  1
  Mn  Mn9  1  0.905864  0.720034  0.062631  1
  Mn  Mn10  1  1.000000  0.500000  0.500000  1
  Mn  Mn11  1  0.849232  0.047297  0.930672  1
  Mn  Mn12  1  0.823494  0.823494  0.250000  1
  Mn  Mn13  1  0.522340  0.522340  0.250000  1
  Mn  Mn14  1  0.051021  0.051021  0.250000  1
  Mn  Mn15  1  0.279966  0.094136  0.562631  1
  Mn  Mn16  1  0.720034  0.905864  0.437369  1
  Mn  Mn17  1  0.477660  0.477660  0.750000  1
  Mn  Mn18  1  0.176506  0.176506  0.750000  1
  Mn  Mn19  1  0.948979  0.948979  0.750000  1
  Mn  Mn20  1  0.150768  0.952703  0.069328  1
  Mn  Mn21  1  0.094136  0.279966  0.937369  1
  Mn  Mn22  1  0.047297  0.849232  0.569328  1
  Mn  Mn23  1  0.500000  0.000000  0.000000  1
  P  P24  1  0.772118  0.109253  0.099284  1
  P  P25  1  0.977203  0.313564  0.100197  1
  P  P26  1  0.699389  0.156804  0.320186  1
  P  P27  1  0.890748  0.227882  0.599284  1
  P  P28  1  0.686436  0.022797  0.600197  1
  P  P29  1  0.780106  0.546956  0.374076  1
  P  P30  1  0.843196  0.300611  0.820186  1
  P  P31  1  0.546956  0.780106  0.125924  1
  P  P32  1  0.453044  0.219894  0.874076  1
  P  P33  1  0.156804  0.699389  0.179814  1
  P  P34  1  0.219894  0.453044  0.625924  1
  P  P35  1  0.313564  0.977203  0.399803  1
  P  P36  1  0.109252  0.772118  0.400716  1
  P  P37  1  0.300611  0.843196  0.679814  1
  P  P38  1  0.022797  0.686436  0.899803  1
  P  P39  1  0.227882  0.890748  0.900716  1
  O  O40  1  0.831354  0.042030  0.180711  1
  O  O41  1  0.867731  0.165787  0.314497  1
  O  O42  1  0.807457  0.277457  0.084463  1
  O  O43  1  0.597729  0.146158  0.073396  1
  O  O44  1  0.933036  0.483942  0.066966  1
  O  O45  1  0.957970  0.168646  0.680711  1
  O  O46  1  0.682282  0.169260  0.403858  1
  O  O47  1  0.904118  0.391827  0.417114  1
  O  O48  1  0.989067  0.685511  0.187074  1
  O  O49  1  0.834213  0.132269  0.814497  1
  O  O50  1  0.567646  0.277720  0.265304  1
  O  O51  1  0.722543  0.192543  0.584463  1
  O  O52  1  0.853842  0.402271  0.573396  1
  O  O53  1  0.516058  0.066964  0.566966  1
  O  O54  1  0.840275  0.590724  0.302080  1
  O  O55  1  0.272436  0.039411  0.316958  1
  O  O56  1  0.879133  0.000496  0.051703  1
  O  O57  1  0.088943  0.207288  0.055377  1
  O  O58  1  0.667014  0.784610  0.071611  1
  O  O59  1  0.830740  0.317718  0.903858  1
  O  O60  1  0.530216  0.613964  0.142076  1
  O  O61  1  0.608173  0.095882  0.917114  1
  O  O62  1  0.613964  0.530216  0.357924  1
  O  O63  1  0.784610  0.667014  0.428389  1
  O  O64  1  0.207288  0.088943  0.444623  1
  O  O65  1  0.000496  0.879133  0.448297  1
  O  O66  1  0.314489  0.010933  0.687074  1
  O  O67  1  0.722280  0.432354  0.765304  1
  O  O68  1  0.039411  0.272436  0.183042  1
  O  O69  1  0.590724  0.840275  0.197920  1
  O  O70  1  0.409276  0.159725  0.802080  1
  O  O71  1  0.960589  0.727564  0.816958  1
  O  O72  1  0.277720  0.567646  0.234696  1
  O  O73  1  0.685511  0.989067  0.312926  1
  O  O74  1  0.999504  0.120867  0.551703  1
  O  O75  1  0.792712  0.911057  0.555377  1
  O  O76  1  0.215390  0.332986  0.571611  1
  O  O77  1  0.386036  0.469784  0.642076  1
  O  O78  1  0.391827  0.904118  0.082886  1
  O  O79  1  0.469784  0.386036  0.857924  1
  O  O80  1  0.169260  0.682282  0.096142  1
  O  O81  1  0.332986  0.215390  0.928389  1
  O  O82  1  0.911057  0.792712  0.944623  1
  O  O83  1  0.120867  0.999504  0.948297  1
  O  O84  1  0.727564  0.960589  0.683042  1
  O  O85  1  0.159725  0.409276  0.697920  1
  O  O86  1  0.483942  0.933036  0.433034  1
  O  O87  1  0.146158  0.597729  0.426604  1
  O  O88  1  0.277457  0.807457  0.415537  1
  O  O89  1  0.432354  0.722280  0.734696  1
  O  O90  1  0.165787  0.867731  0.185503  1
  O  O91  1  0.010933  0.314489  0.812926  1
  O  O92  1  0.095882  0.608173  0.582886  1
  O  O93  1  0.317718  0.830740  0.596142  1
  O  O94  1  0.042030  0.831354  0.319289  1
  O  O95  1  0.066964  0.516058  0.933034  1
  O  O96  1  0.402271  0.853842  0.926604  1
  O  O97  1  0.192543  0.722543  0.915537  1
  O  O98  1  0.132269  0.834213  0.685503  1
  O  O99  1  0.168646  0.957970  0.819289  1
