# generated using pymatgen
data_SiO2
_symmetry_space_group_name_H-M   'P 1'
_cell_length_a   5.16776597
_cell_length_b   8.29554800
_cell_length_c   9.56492604
_cell_angle_alpha   90.00000000
_cell_angle_beta   120.06756864
_cell_angle_gamma   90.00000000
_symmetry_Int_Tables_number   1
_chemical_formula_structural   SiO2
_chemical_formula_sum   'Si8 O16'
_cell_volume   354.86573509
_cell_formula_units_Z   8
loop_
 _symmetry_equiv_pos_site_id
 _symmetry_equiv_pos_as_xyz
  1  'x, y, z'
loop_
 _atom_site_type_symbol
 _atom_site_label
 _atom_site_symmetry_multiplicity
 _atom_site_fract_x
 _atom_site_fract_y
 _atom_site_fract_z
 _atom_site_occupancy
  Si  Si0  1  0.652996  0.247341  0.607049  1
  Si  Si1  1  0.288039  0.105112  0.251084  1
  Si  Si2  1  0.652996  0.252659  0.107049  1
  Si  Si3  1  0.711961  0.605112  0.248916  1
  Si  Si4  1  0.347004  0.747341  0.892951  1
  Si  Si5  1  0.347004  0.752659  0.392951  1
  Si  Si6  1  0.288039  0.394888  0.751084  1
  Si  Si7  1  0.711961  0.894888  0.748916  1
  O  O8  1  0.956456  0.173815  0.125633  1
  O  O9  1  0.503257  0.622874  0.330744  1
  O  O10  1  0.733635  0.084075  0.714555  1
  O  O11  1  0.496743  0.377126  0.669256  1
  O  O12  1  0.496743  0.122874  0.169256  1
  O  O13  1  0.733635  0.415925  0.214555  1
  O  O14  1  0.572402  0.707076  0.081714  1
  O  O15  1  0.503257  0.877126  0.830744  1
  O  O16  1  0.043544  0.826185  0.874367  1
  O  O17  1  0.956456  0.326185  0.625633  1
  O  O18  1  0.427598  0.292924  0.918286  1
  O  O19  1  0.572402  0.792924  0.581714  1
  O  O20  1  0.266365  0.584075  0.785445  1
  O  O21  1  0.266365  0.915925  0.285445  1
  O  O22  1  0.043544  0.673815  0.374367  1
  O  O23  1  0.427598  0.207076  0.418286  1
