# generated using pymatgen
data_Rb2MgH4
_symmetry_space_group_name_H-M   'P 1'
_cell_length_a   6.66655471
_cell_length_b   6.66655471
_cell_length_c   8.80872744
_cell_angle_alpha   90.00000000
_cell_angle_beta   90.00000000
_cell_angle_gamma   103.79332326
_symmetry_Int_Tables_number   1
_chemical_formula_structural   Rb2MgH4
_chemical_formula_sum   'Rb4 Mg2 H8'
_cell_volume   380.19620624
_cell_formula_units_Z   2
loop_
 _symmetry_equiv_pos_site_id
 _symmetry_equiv_pos_as_xyz
  1  'x, y, z'
loop_
 _atom_site_type_symbol
 _atom_site_label
 _atom_site_symmetry_multiplicity
 _atom_site_fract_x
 _atom_site_fract_y
 _atom_site_fract_z
 _atom_site_occupancy
  Rb  Rb0  1  0.500000  0.500000  0.500000  1
  Rb  Rb1  1  0.500000  0.500000  1.000000  1
  Rb  Rb2  1  0.909513  0.090487  0.750000  1
  Rb  Rb3  1  0.090487  0.909513  0.250000  1
  Mg  Mg4  1  0.255842  0.744158  0.750000  1
  Mg  Mg5  1  0.744158  0.255842  0.250000  1
  H  H6  1  0.545727  0.785843  0.750000  1
  H  H7  1  0.785843  0.545727  0.250000  1
  H  H8  1  0.838461  0.161539  0.073431  1
  H  H9  1  0.838461  0.161539  0.426569  1
  H  H10  1  0.161539  0.838461  0.926569  1
  H  H11  1  0.161539  0.838461  0.573431  1
  H  H12  1  0.214157  0.454273  0.750000  1
  H  H13  1  0.454273  0.214157  0.250000  1
