# generated using pymatgen
data_Rb2H2C2O5
_symmetry_space_group_name_H-M   'P 1'
_cell_length_a   5.83449421
_cell_length_b   5.83449421
_cell_length_c   11.10720051
_cell_angle_alpha   74.69236259
_cell_angle_beta   105.30763741
_cell_angle_gamma   112.36836296
_symmetry_Int_Tables_number   1
_chemical_formula_structural   Rb2H2C2O5
_chemical_formula_sum   'Rb4 H4 C4 O10'
_cell_volume   331.53217312
_cell_formula_units_Z   2
loop_
 _symmetry_equiv_pos_site_id
 _symmetry_equiv_pos_as_xyz
  1  'x, y, z'
loop_
 _atom_site_type_symbol
 _atom_site_label
 _atom_site_symmetry_multiplicity
 _atom_site_fract_x
 _atom_site_fract_y
 _atom_site_fract_z
 _atom_site_occupancy
  Rb  Rb0  1  0.309933  0.050217  0.130186  1
  Rb  Rb1  1  0.050217  0.309933  0.369814  1
  Rb  Rb2  1  0.949783  0.690067  0.630186  1
  Rb  Rb3  1  0.690067  0.949783  0.869814  1
  H  H4  1  0.653643  0.569963  0.198492  1
  H  H5  1  0.569963  0.653643  0.301508  1
  H  H6  1  0.430037  0.346357  0.698492  1
  H  H7  1  0.346357  0.430037  0.801508  1
  C  C8  1  0.915828  0.441527  0.053453  1
  C  C9  1  0.441527  0.915828  0.446547  1
  C  C10  1  0.558473  0.084172  0.553453  1
  C  C11  1  0.084172  0.558473  0.946547  1
  O  O12  1  0.860493  0.596520  0.093346  1
  O  O13  1  0.849816  0.205592  0.092661  1
  O  O14  1  0.522063  0.522063  0.250000  1
  O  O15  1  0.205592  0.849816  0.407339  1
  O  O16  1  0.596520  0.860493  0.406654  1
  O  O17  1  0.403480  0.139507  0.593346  1
  O  O18  1  0.794408  0.150184  0.592661  1
  O  O19  1  0.477937  0.477937  0.750000  1
  O  O20  1  0.150184  0.794408  0.907339  1
  O  O21  1  0.139507  0.403480  0.906654  1
