# generated using pymatgen
data_Na2CrH2F8
_symmetry_space_group_name_H-M   'P 1'
_cell_length_a   5.48001651
_cell_length_b   5.48001651
_cell_length_c   5.48620687
_cell_angle_alpha   73.79603652
_cell_angle_beta   106.20396348
_cell_angle_gamma   85.41449885
_symmetry_Int_Tables_number   1
_chemical_formula_structural   Na2CrH2F8
_chemical_formula_sum   'Na2 Cr1 H2 F8'
_cell_volume   149.68249678
_cell_formula_units_Z   1
loop_
 _symmetry_equiv_pos_site_id
 _symmetry_equiv_pos_as_xyz
  1  'x, y, z'
loop_
 _atom_site_type_symbol
 _atom_site_label
 _atom_site_symmetry_multiplicity
 _atom_site_fract_x
 _atom_site_fract_y
 _atom_site_fract_z
 _atom_site_occupancy
  Na  Na0  1  0.737579  0.737579  0.500000  1
  Na  Na1  1  0.262421  0.262421  0.500000  1
  Cr  Cr2  1  0.000000  0.000000  0.000000  1
  H  H3  1  0.346073  0.653927  0.782137  1
  H  H4  1  0.653927  0.346073  0.217863  1
  F  F5  1  0.678417  0.998299  0.779348  1
  F  F6  1  0.143570  0.856430  0.777753  1
  F  F7  1  0.998299  0.678417  0.220652  1
  F  F8  1  0.459874  0.540126  0.735006  1
  F  F9  1  0.540126  0.459874  0.264994  1
  F  F10  1  0.001701  0.321583  0.779348  1
  F  F11  1  0.856430  0.143570  0.222247  1
  F  F12  1  0.321583  0.001701  0.220652  1
