# generated using pymatgen
data_USe3
_symmetry_space_group_name_H-M   'P 1'
_cell_length_a   5.71425334
_cell_length_b   4.03482964
_cell_length_c   10.19710381
_cell_angle_alpha   90.00000000
_cell_angle_beta   97.49384234
_cell_angle_gamma   90.00000000
_symmetry_Int_Tables_number   1
_chemical_formula_structural   USe3
_chemical_formula_sum   'U2 Se6'
_cell_volume   233.09676286
_cell_formula_units_Z   2
loop_
 _symmetry_equiv_pos_site_id
 _symmetry_equiv_pos_as_xyz
  1  'x, y, z'
loop_
 _atom_site_type_symbol
 _atom_site_label
 _atom_site_symmetry_multiplicity
 _atom_site_fract_x
 _atom_site_fract_y
 _atom_site_fract_z
 _atom_site_occupancy
  U  U0  1  0.782403  0.750000  0.139326  1
  U  U1  1  0.217597  0.250000  0.860674  1
  Se  Se2  1  0.384338  0.750000  0.688361  1
  Se  Se3  1  0.615662  0.250000  0.311639  1
  Se  Se4  1  0.734693  0.250000  0.935220  1
  Se  Se5  1  0.265307  0.750000  0.064780  1
  Se  Se6  1  0.031111  0.250000  0.310383  1
  Se  Se7  1  0.968889  0.750000  0.689617  1
