# generated using pymatgen
data_EuLu2O4
_symmetry_space_group_name_H-M   'P 1'
_cell_length_a   3.34884516
_cell_length_b   9.86387710
_cell_length_c   11.75743017
_cell_angle_alpha   90.00000000
_cell_angle_beta   90.00000000
_cell_angle_gamma   90.00000000
_symmetry_Int_Tables_number   1
_chemical_formula_structural   EuLu2O4
_chemical_formula_sum   'Eu4 Lu8 O16'
_cell_volume   388.37845356
_cell_formula_units_Z   4
loop_
 _symmetry_equiv_pos_site_id
 _symmetry_equiv_pos_as_xyz
  1  'x, y, z'
loop_
 _atom_site_type_symbol
 _atom_site_label
 _atom_site_symmetry_multiplicity
 _atom_site_fract_x
 _atom_site_fract_y
 _atom_site_fract_z
 _atom_site_occupancy
  Eu  Eu0  1  0.750000  0.252251  0.649829  1
  Eu  Eu1  1  0.250000  0.247749  0.149829  1
  Eu  Eu2  1  0.750000  0.752251  0.850171  1
  Eu  Eu3  1  0.250000  0.747749  0.350171  1
  Lu  Lu4  1  0.750000  0.572408  0.111275  1
  Lu  Lu5  1  0.250000  0.927592  0.611275  1
  Lu  Lu6  1  0.750000  0.072408  0.388725  1
  Lu  Lu7  1  0.250000  0.427592  0.888725  1
  Lu  Lu8  1  0.750000  0.582195  0.610848  1
  Lu  Lu9  1  0.250000  0.917805  0.110848  1
  Lu  Lu10  1  0.750000  0.082195  0.889152  1
  Lu  Lu11  1  0.250000  0.417805  0.389152  1
  O  O12  1  0.750000  0.569514  0.421892  1
  O  O13  1  0.250000  0.930486  0.921892  1
  O  O14  1  0.750000  0.069514  0.078108  1
  O  O15  1  0.250000  0.430486  0.578108  1
  O  O16  1  0.750000  0.492734  0.783566  1
  O  O17  1  0.250000  0.007266  0.283566  1
  O  O18  1  0.750000  0.992734  0.716434  1
  O  O19  1  0.250000  0.507266  0.216434  1
  O  O20  1  0.750000  0.872646  0.484645  1
  O  O21  1  0.250000  0.627354  0.984645  1
  O  O22  1  0.750000  0.372646  0.015355  1
  O  O23  1  0.250000  0.127354  0.515355  1
  O  O24  1  0.750000  0.783261  0.174589  1
  O  O25  1  0.250000  0.716739  0.674589  1
  O  O26  1  0.750000  0.283261  0.325411  1
  O  O27  1  0.250000  0.216739  0.825411  1
