# generated using pymatgen
data_KTi2F7
_symmetry_space_group_name_H-M   'P 1'
_cell_length_a   6.15475937
_cell_length_b   6.15475937
_cell_length_c   4.00061555
_cell_angle_alpha   90.00000000
_cell_angle_beta   90.00000000
_cell_angle_gamma   116.54335706
_symmetry_Int_Tables_number   1
_chemical_formula_structural   KTi2F7
_chemical_formula_sum   'K1 Ti2 F7'
_cell_volume   135.57391869
_cell_formula_units_Z   1
loop_
 _symmetry_equiv_pos_site_id
 _symmetry_equiv_pos_as_xyz
  1  'x, y, z'
loop_
 _atom_site_type_symbol
 _atom_site_label
 _atom_site_symmetry_multiplicity
 _atom_site_fract_x
 _atom_site_fract_y
 _atom_site_fract_z
 _atom_site_occupancy
  K  K0  1  0.000000  0.000000  0.000000  1
  Ti  Ti1  1  0.306772  0.693228  0.500000  1
  Ti  Ti2  1  0.693228  0.306772  0.500000  1
  F  F3  1  0.044107  0.333741  0.500000  1
  F  F4  1  0.302089  0.697911  1.000000  1
  F  F5  1  0.333741  0.044107  0.500000  1
  F  F6  1  0.500000  0.500000  0.500000  1
  F  F7  1  0.666259  0.955893  0.500000  1
  F  F8  1  0.697911  0.302089  0.000000  1
  F  F9  1  0.955893  0.666259  0.500000  1
