# generated using pymatgen
data_Rb2CoP4(HO2)8
_symmetry_space_group_name_H-M   'P 1'
_cell_length_a   7.04254069
_cell_length_b   7.35180074
_cell_length_c   7.80320190
_cell_angle_alpha   97.80344845
_cell_angle_beta   111.28920411
_cell_angle_gamma   87.34907898
_symmetry_Int_Tables_number   1
_chemical_formula_structural   Rb2CoP4(HO2)8
_chemical_formula_sum   'Rb2 Co1 P4 H8 O16'
_cell_volume   372.95551018
_cell_formula_units_Z   1
loop_
 _symmetry_equiv_pos_site_id
 _symmetry_equiv_pos_as_xyz
  1  'x, y, z'
loop_
 _atom_site_type_symbol
 _atom_site_label
 _atom_site_symmetry_multiplicity
 _atom_site_fract_x
 _atom_site_fract_y
 _atom_site_fract_z
 _atom_site_occupancy
  Rb  Rb0  1  0.416273  0.284051  0.795346  1
  Rb  Rb1  1  0.583727  0.715949  0.204654  1
  Co  Co2  1  0.000000  0.500000  0.000000  1
  P  P3  1  0.133031  0.734697  0.720584  1
  P  P4  1  0.866969  0.265303  0.279416  1
  P  P5  1  0.721423  0.791175  0.735578  1
  P  P6  1  0.278577  0.208825  0.264422  1
  H  H7  1  0.241259  0.968073  0.942681  1
  H  H8  1  0.758741  0.031927  0.057319  1
  H  H9  1  0.904121  0.288433  0.670583  1
  H  H10  1  0.095879  0.711567  0.329417  1
  H  H11  1  0.395102  0.735357  0.562612  1
  H  H12  1  0.604898  0.264643  0.437388  1
  H  H13  1  0.890950  0.157278  0.816921  1
  H  H14  1  0.109050  0.842722  0.183079  1
  O  O15  1  0.956480  0.268421  0.803520  1
  O  O16  1  0.043520  0.731579  0.196480  1
  O  O17  1  0.245354  0.924962  0.813125  1
  O  O18  1  0.754646  0.075038  0.186875  1
  O  O19  1  0.192612  0.666964  0.555592  1
  O  O20  1  0.807388  0.333036  0.444408  1
  O  O21  1  0.175556  0.607705  0.868382  1
  O  O22  1  0.824444  0.392295  0.131618  1
  O  O23  1  0.891152  0.779340  0.636084  1
  O  O24  1  0.108848  0.220660  0.363916  1
  O  O25  1  0.749833  0.977837  0.854291  1
  O  O26  1  0.250167  0.022163  0.145709  1
  O  O27  1  0.525920  0.785170  0.553864  1
  O  O28  1  0.474080  0.214830  0.446136  1
  O  O29  1  0.731993  0.624838  0.834018  1
  O  O30  1  0.268007  0.375162  0.165982  1
