# generated using pymatgen
data_H4CN2O
_symmetry_space_group_name_H-M   'P 1'
_cell_length_a   6.20575885
_cell_length_b   6.20575885
_cell_length_c   4.59601861
_cell_angle_alpha   90.00000000
_cell_angle_beta   90.00000000
_cell_angle_gamma   90.00000000
_symmetry_Int_Tables_number   1
_chemical_formula_structural   H4CN2O
_chemical_formula_sum   'H8 C2 N4 O2'
_cell_volume   176.99930829
_cell_formula_units_Z   2
loop_
 _symmetry_equiv_pos_site_id
 _symmetry_equiv_pos_as_xyz
  1  'x, y, z'
loop_
 _atom_site_type_symbol
 _atom_site_label
 _atom_site_symmetry_multiplicity
 _atom_site_fract_x
 _atom_site_fract_y
 _atom_site_fract_z
 _atom_site_occupancy
  H  H0  1  0.269407  0.230593  0.531683  1
  H  H1  1  0.730593  0.769407  0.531683  1
  H  H2  1  0.368853  0.131147  0.196070  1
  H  H3  1  0.631147  0.868853  0.196070  1
  H  H4  1  0.769407  0.269407  0.468317  1
  H  H5  1  0.230593  0.730593  0.468317  1
  H  H6  1  0.868853  0.368853  0.803930  1
  H  H7  1  0.131147  0.631147  0.803930  1
  C  C8  1  0.000000  0.500000  0.425714  1
  C  C9  1  0.500000  0.000000  0.574286  1
  N  N10  1  0.368047  0.131953  0.418137  1
  N  N11  1  0.631953  0.868047  0.418137  1
  N  N12  1  0.868047  0.368047  0.581863  1
  N  N13  1  0.131953  0.631953  0.581863  1
  O  O14  1  0.000000  0.500000  0.151280  1
  O  O15  1  0.500000  0.000000  0.848720  1
