# generated using pymatgen
data_RbTi5Se8
_symmetry_space_group_name_H-M   'P 1'
_cell_length_a   9.68450551
_cell_length_b   9.68450551
_cell_length_c   9.23866906
_cell_angle_alpha   75.53687541
_cell_angle_beta   104.46312459
_cell_angle_gamma   158.28805650
_symmetry_Int_Tables_number   1
_chemical_formula_structural   RbTi5Se8
_chemical_formula_sum   'Rb1 Ti5 Se8'
_cell_volume   310.01159986
_cell_formula_units_Z   1
loop_
 _symmetry_equiv_pos_site_id
 _symmetry_equiv_pos_as_xyz
  1  'x, y, z'
loop_
 _atom_site_type_symbol
 _atom_site_label
 _atom_site_symmetry_multiplicity
 _atom_site_fract_x
 _atom_site_fract_y
 _atom_site_fract_z
 _atom_site_occupancy
  Rb  Rb0  1  0.500000  0.500000  0.500000  1
  Ti  Ti1  1  0.000000  0.000000  0.000000  1
  Ti  Ti2  1  0.657491  0.342509  0.002085  1
  Ti  Ti3  1  0.707885  0.292115  0.347090  1
  Ti  Ti4  1  0.292115  0.707885  0.652910  1
  Ti  Ti5  1  0.342509  0.657491  0.997915  1
  Se  Se6  1  0.573979  0.426021  0.173929  1
  Se  Se7  1  0.088538  0.911462  0.826530  1
  Se  Se8  1  0.161835  0.838165  0.497915  1
  Se  Se9  1  0.244137  0.755863  0.167324  1
  Se  Se10  1  0.755863  0.244137  0.832676  1
  Se  Se11  1  0.838165  0.161835  0.502085  1
  Se  Se12  1  0.911462  0.088538  0.173470  1
  Se  Se13  1  0.426021  0.573979  0.826071  1
