# generated using pymatgen
data_RbSnF3
_symmetry_space_group_name_H-M   'P 1'
_cell_length_a   4.60990802
_cell_length_b   4.63933845
_cell_length_c   5.30034888
_cell_angle_alpha   96.68175288
_cell_angle_beta   94.43941139
_cell_angle_gamma   89.56277466
_symmetry_Int_Tables_number   1
_chemical_formula_structural   RbSnF3
_chemical_formula_sum   'Rb1 Sn1 F3'
_cell_volume   112.25029836
_cell_formula_units_Z   1
loop_
 _symmetry_equiv_pos_site_id
 _symmetry_equiv_pos_as_xyz
  1  'x, y, z'
loop_
 _atom_site_type_symbol
 _atom_site_label
 _atom_site_symmetry_multiplicity
 _atom_site_fract_x
 _atom_site_fract_y
 _atom_site_fract_z
 _atom_site_occupancy
  Rb  Rb0  1  0.023604  0.033845  0.920314  1
  Sn  Sn1  1  0.492582  0.485299  0.490553  1
  F  F2  1  0.975465  0.497017  0.568845  1
  F  F3  1  0.511938  0.513413  0.888970  1
  F  F4  1  0.496411  0.960427  0.571316  1
