# generated using pymatgen
data_CaReN3
_symmetry_space_group_name_H-M   'P 1'
_cell_length_a   7.45024995
_cell_length_b   7.45024995
_cell_length_c   6.28517895
_cell_angle_alpha   74.40222480
_cell_angle_beta   105.59777520
_cell_angle_gamma   96.05908828
_symmetry_Int_Tables_number   1
_chemical_formula_structural   CaReN3
_chemical_formula_sum   'Ca4 Re4 N12'
_cell_volume   323.43626250
_cell_formula_units_Z   4
loop_
 _symmetry_equiv_pos_site_id
 _symmetry_equiv_pos_as_xyz
  1  'x, y, z'
loop_
 _atom_site_type_symbol
 _atom_site_label
 _atom_site_symmetry_multiplicity
 _atom_site_fract_x
 _atom_site_fract_y
 _atom_site_fract_z
 _atom_site_occupancy
  Ca  Ca0  1  0.911970  0.911970  0.750000  1
  Ca  Ca1  1  0.294640  0.294640  0.750000  1
  Ca  Ca2  1  0.088030  0.088030  0.250000  1
  Ca  Ca3  1  0.705360  0.705360  0.250000  1
  Re  Re4  1  0.203250  0.622070  0.273290  1
  Re  Re5  1  0.622070  0.203250  0.226710  1
  Re  Re6  1  0.796750  0.377930  0.726710  1
  Re  Re7  1  0.377930  0.796750  0.773290  1
  N  N8  1  0.644870  0.342490  0.936950  1
  N  N9  1  0.773630  0.010970  0.337570  1
  N  N10  1  0.010970  0.773630  0.162430  1
  N  N11  1  0.989030  0.226370  0.837570  1
  N  N12  1  0.355130  0.657510  0.063050  1
  N  N13  1  0.611340  0.878000  0.829350  1
  N  N14  1  0.388660  0.122000  0.170650  1
  N  N15  1  0.226370  0.989030  0.662430  1
  N  N16  1  0.122000  0.388660  0.329350  1
  N  N17  1  0.342490  0.644870  0.563050  1
  N  N18  1  0.878000  0.611340  0.670650  1
  N  N19  1  0.657510  0.355130  0.436950  1
