# generated using pymatgen
data_VFe11C4
_symmetry_space_group_name_H-M   'P 1'
_cell_length_a   4.76077723
_cell_length_b   4.46945757
_cell_length_c   7.32581660
_cell_angle_alpha   90.00000000
_cell_angle_beta   90.31384466
_cell_angle_gamma   90.00000000
_symmetry_Int_Tables_number   1
_chemical_formula_structural   VFe11C4
_chemical_formula_sum   'V1 Fe11 C4'
_cell_volume   155.87705991
_cell_formula_units_Z   1
loop_
 _symmetry_equiv_pos_site_id
 _symmetry_equiv_pos_as_xyz
  1  'x, y, z'
loop_
 _atom_site_type_symbol
 _atom_site_label
 _atom_site_symmetry_multiplicity
 _atom_site_fract_x
 _atom_site_fract_y
 _atom_site_fract_z
 _atom_site_occupancy
  V  V0  1  0.431990  0.500000  0.171525  1
  Fe  Fe1  1  0.805831  0.500000  0.378683  1
  Fe  Fe2  1  0.924801  0.500000  0.047383  1
  Fe  Fe3  1  0.441794  0.000000  0.702099  1
  Fe  Fe4  1  0.801496  0.000000  0.169532  1
  Fe  Fe5  1  0.943188  0.000000  0.514997  1
  Fe  Fe6  1  0.922237  0.000000  0.835369  1
  Fe  Fe7  1  0.423618  0.000000  0.381874  1
  Fe  Fe8  1  0.304609  0.500000  0.834494  1
  Fe  Fe9  1  0.280268  0.500000  0.514777  1
  Fe  Fe10  1  0.306052  0.000000  0.042075  1
  Fe  Fe11  1  0.779633  0.500000  0.703157  1
  C  C12  1  0.616119  0.758815  0.940805  1
  C  C13  1  0.101638  0.236219  0.275694  1
  C  C14  1  0.101638  0.763781  0.275694  1
  C  C15  1  0.616119  0.241185  0.940805  1
