# generated using pymatgen
data_LaTaN3
_symmetry_space_group_name_H-M   'P 1'
_cell_length_a   7.11636806
_cell_length_b   5.76324651
_cell_length_c   8.33283624
_cell_angle_alpha   90.00000000
_cell_angle_beta   125.66122608
_cell_angle_gamma   90.00000000
_symmetry_Int_Tables_number   1
_chemical_formula_structural   LaTaN3
_chemical_formula_sum   'La4 Ta4 N12'
_cell_volume   277.67078252
_cell_formula_units_Z   4
loop_
 _symmetry_equiv_pos_site_id
 _symmetry_equiv_pos_as_xyz
  1  'x, y, z'
loop_
 _atom_site_type_symbol
 _atom_site_label
 _atom_site_symmetry_multiplicity
 _atom_site_fract_x
 _atom_site_fract_y
 _atom_site_fract_z
 _atom_site_occupancy
  La  La0  1  0.760808  0.244470  0.377296  1
  La  La1  1  0.239192  0.755530  0.622704  1
  La  La2  1  0.760808  0.255530  0.877296  1
  La  La3  1  0.239192  0.744470  0.122704  1
  Ta  Ta4  1  0.772046  0.725575  0.141162  1
  Ta  Ta5  1  0.227954  0.225575  0.358838  1
  Ta  Ta6  1  0.227954  0.274425  0.858838  1
  Ta  Ta7  1  0.772046  0.774425  0.641162  1
  N  N8  1  0.269363  0.234213  0.636712  1
  N  N9  1  0.269363  0.265787  0.136712  1
  N  N10  1  0.061523  0.536668  0.291361  1
  N  N11  1  0.938477  0.036668  0.208639  1
  N  N12  1  0.938477  0.463332  0.708639  1
  N  N13  1  0.730637  0.765787  0.363288  1
  N  N14  1  0.420864  0.900684  0.462148  1
  N  N15  1  0.579136  0.099316  0.537852  1
  N  N16  1  0.730637  0.734213  0.863288  1
  N  N17  1  0.061523  0.963332  0.791361  1
  N  N18  1  0.420864  0.599316  0.962148  1
  N  N19  1  0.579136  0.400684  0.037852  1
