# generated using pymatgen
data_Y3Th
_symmetry_space_group_name_H-M   'P 1'
_cell_length_a   7.23325402
_cell_length_b   7.23325402
_cell_length_c   5.81055589
_cell_angle_alpha   90.00000000
_cell_angle_beta   90.00000000
_cell_angle_gamma   120.00000000
_symmetry_Int_Tables_number   1
_chemical_formula_structural   Y3Th
_chemical_formula_sum   'Y6 Th2'
_cell_volume   263.27871417
_cell_formula_units_Z   2
loop_
 _symmetry_equiv_pos_site_id
 _symmetry_equiv_pos_as_xyz
  1  'x, y, z'
loop_
 _atom_site_type_symbol
 _atom_site_label
 _atom_site_symmetry_multiplicity
 _atom_site_fract_x
 _atom_site_fract_y
 _atom_site_fract_z
 _atom_site_occupancy
  Y  Y0  1  0.168054  0.336108  0.250000  1
  Y  Y1  1  0.663892  0.831946  0.250000  1
  Y  Y2  1  0.168054  0.831946  0.250000  1
  Y  Y3  1  0.831946  0.663892  0.750000  1
  Y  Y4  1  0.336108  0.168054  0.750000  1
  Y  Y5  1  0.831946  0.168054  0.750000  1
  Th  Th6  1  0.333333  0.666667  0.750000  1
  Th  Th7  1  0.666667  0.333333  0.250000  1
