# generated using pymatgen
data_TmBi3
_symmetry_space_group_name_H-M   'P 1'
_cell_length_a   6.41512652
_cell_length_b   6.41512652
_cell_length_c   6.41512652
_cell_angle_alpha   137.27178241
_cell_angle_beta   137.27178241
_cell_angle_gamma   62.02014849
_symmetry_Int_Tables_number   1
_chemical_formula_structural   TmBi3
_chemical_formula_sum   'Tm1 Bi3'
_cell_volume   120.11525606
_cell_formula_units_Z   1
loop_
 _symmetry_equiv_pos_site_id
 _symmetry_equiv_pos_as_xyz
  1  'x, y, z'
loop_
 _atom_site_type_symbol
 _atom_site_label
 _atom_site_symmetry_multiplicity
 _atom_site_fract_x
 _atom_site_fract_y
 _atom_site_fract_z
 _atom_site_occupancy
  Tm  Tm0  1  0.000000  0.000000  0.000000  1
  Bi  Bi1  1  0.250000  0.750000  0.500000  1
  Bi  Bi2  1  0.750000  0.250000  0.500000  1
  Bi  Bi3  1  0.500000  0.500000  0.000000  1
