# generated using pymatgen
data_Lu2Fe17C3
_symmetry_space_group_name_H-M   'P 1'
_cell_length_a   6.46215756
_cell_length_b   6.46215756
_cell_length_c   6.46215756
_cell_angle_alpha   82.88596855
_cell_angle_beta   82.88596855
_cell_angle_gamma   82.88596855
_symmetry_Int_Tables_number   1
_chemical_formula_structural   Lu2Fe17C3
_chemical_formula_sum   'Lu2 Fe17 C3'
_cell_volume   264.09914494
_cell_formula_units_Z   1
loop_
 _symmetry_equiv_pos_site_id
 _symmetry_equiv_pos_as_xyz
  1  'x, y, z'
loop_
 _atom_site_type_symbol
 _atom_site_label
 _atom_site_symmetry_multiplicity
 _atom_site_fract_x
 _atom_site_fract_y
 _atom_site_fract_z
 _atom_site_occupancy
  Lu  Lu0  1  0.657837  0.657837  0.657837  1
  Lu  Lu1  1  0.342163  0.342163  0.342163  1
  Fe  Fe2  1  0.903832  0.903832  0.903832  1
  Fe  Fe3  1  0.096168  0.096168  0.096168  1
  Fe  Fe4  1  1.000000  0.716599  0.283401  1
  Fe  Fe5  1  0.283401  0.000000  0.716599  1
  Fe  Fe6  1  0.716599  0.283401  0.000000  1
  Fe  Fe7  1  0.000000  0.283401  0.716599  1
  Fe  Fe8  1  0.716599  0.000000  0.283401  1
  Fe  Fe9  1  0.283401  0.716599  0.000000  1
  Fe  Fe10  1  0.345029  0.345029  0.852899  1
  Fe  Fe11  1  0.852899  0.345029  0.345029  1
  Fe  Fe12  1  0.345029  0.852899  0.345029  1
  Fe  Fe13  1  0.654971  0.147101  0.654971  1
  Fe  Fe14  1  0.147101  0.654971  0.654971  1
  Fe  Fe15  1  0.654971  0.654971  0.147101  1
  Fe  Fe16  1  0.500000  0.000000  0.000000  1
  Fe  Fe17  1  0.000000  0.500000  0.000000  1
  Fe  Fe18  1  0.000000  0.000000  0.500000  1
  C  C19  1  0.000000  0.500000  0.500000  1
  C  C20  1  0.500000  0.000000  0.500000  1
  C  C21  1  0.500000  0.500000  0.000000  1
