# generated using pymatgen
data_SnGe3
_symmetry_space_group_name_H-M   'P 1'
_cell_length_a   5.41495673
_cell_length_b   5.41495673
_cell_length_c   5.41495673
_cell_angle_alpha   132.47350097
_cell_angle_beta   132.47350097
_cell_angle_gamma   69.48220385
_symmetry_Int_Tables_number   1
_chemical_formula_structural   SnGe3
_chemical_formula_sum   'Sn1 Ge3'
_cell_volume   84.74172283
_cell_formula_units_Z   1
loop_
 _symmetry_equiv_pos_site_id
 _symmetry_equiv_pos_as_xyz
  1  'x, y, z'
loop_
 _atom_site_type_symbol
 _atom_site_label
 _atom_site_symmetry_multiplicity
 _atom_site_fract_x
 _atom_site_fract_y
 _atom_site_fract_z
 _atom_site_occupancy
  Sn  Sn0  1  0.000000  0.000000  0.000000  1
  Ge  Ge1  1  0.250000  0.750000  0.500000  1
  Ge  Ge2  1  0.750000  0.250000  0.500000  1
  Ge  Ge3  1  0.500000  0.500000  0.000000  1
