# generated using pymatgen
data_YbP5
_symmetry_space_group_name_H-M   'P 1'
_cell_length_a   4.71530932
_cell_length_b   9.67122522
_cell_length_c   5.48618357
_cell_angle_alpha   90.00000000
_cell_angle_beta   105.68258979
_cell_angle_gamma   90.00000000
_symmetry_Int_Tables_number   1
_chemical_formula_structural   YbP5
_chemical_formula_sum   'Yb2 P10'
_cell_volume   240.87201224
_cell_formula_units_Z   2
loop_
 _symmetry_equiv_pos_site_id
 _symmetry_equiv_pos_as_xyz
  1  'x, y, z'
loop_
 _atom_site_type_symbol
 _atom_site_label
 _atom_site_symmetry_multiplicity
 _atom_site_fract_x
 _atom_site_fract_y
 _atom_site_fract_z
 _atom_site_occupancy
  Yb  Yb0  1  0.929841  0.250000  0.619605  1
  Yb  Yb1  1  0.070159  0.750000  0.380395  1
  P  P2  1  0.723485  0.250000  0.074877  1
  P  P3  1  0.276515  0.750000  0.925123  1
  P  P4  1  0.372487  0.407356  0.026146  1
  P  P5  1  0.627513  0.907356  0.973854  1
  P  P6  1  0.627513  0.592644  0.973854  1
  P  P7  1  0.372487  0.092644  0.026146  1
  P  P8  1  0.309108  0.440052  0.408976  1
  P  P9  1  0.690892  0.940052  0.591024  1
  P  P10  1  0.690892  0.559948  0.591024  1
  P  P11  1  0.309108  0.059948  0.408976  1
