# generated using pymatgen
data_Mn4As3
_symmetry_space_group_name_H-M   'P 1'
_cell_length_a   6.74080066
_cell_length_b   6.74080066
_cell_length_c   9.39959332
_cell_angle_alpha   76.64625424
_cell_angle_beta   103.35374576
_cell_angle_gamma   149.59853651
_symmetry_Int_Tables_number   1
_chemical_formula_structural   Mn4As3
_chemical_formula_sum   'Mn8 As6'
_cell_volume   209.85599654
_cell_formula_units_Z   2
loop_
 _symmetry_equiv_pos_site_id
 _symmetry_equiv_pos_as_xyz
  1  'x, y, z'
loop_
 _atom_site_type_symbol
 _atom_site_label
 _atom_site_symmetry_multiplicity
 _atom_site_fract_x
 _atom_site_fract_y
 _atom_site_fract_z
 _atom_site_occupancy
  Mn  Mn0  1  0.782764  0.217236  0.834048  1
  Mn  Mn1  1  0.217236  0.782764  0.165952  1
  Mn  Mn2  1  0.656942  0.343058  0.450233  1
  Mn  Mn3  1  0.343058  0.656942  0.549767  1
  Mn  Mn4  1  0.567839  0.432161  0.712364  1
  Mn  Mn5  1  0.432161  0.567839  0.287636  1
  Mn  Mn6  1  0.000000  0.000000  0.500000  1
  Mn  Mn7  1  0.000000  0.000000  0.000000  1
  As  As8  1  0.937519  0.062481  0.726707  1
  As  As9  1  0.062481  0.937519  0.273293  1
  As  As10  1  0.813479  0.186521  0.346584  1
  As  As11  1  0.186521  0.813479  0.653416  1
  As  As12  1  0.638353  0.361647  0.979230  1
  As  As13  1  0.361647  0.638353  0.020770  1
