# generated using pymatgen
data_Na(TeMo)3
_symmetry_space_group_name_H-M   'P 1'
_cell_length_a   9.34342901
_cell_length_b   9.34342901
_cell_length_c   4.62638104
_cell_angle_alpha   90.00000000
_cell_angle_beta   90.00000000
_cell_angle_gamma   120.00000000
_symmetry_Int_Tables_number   1
_chemical_formula_structural   Na(TeMo)3
_chemical_formula_sum   'Na2 Te6 Mo6'
_cell_volume   349.77165475
_cell_formula_units_Z   2
loop_
 _symmetry_equiv_pos_site_id
 _symmetry_equiv_pos_as_xyz
  1  'x, y, z'
loop_
 _atom_site_type_symbol
 _atom_site_label
 _atom_site_symmetry_multiplicity
 _atom_site_fract_x
 _atom_site_fract_y
 _atom_site_fract_z
 _atom_site_occupancy
  Na  Na0  1  0.333333  0.666667  0.250000  1
  Na  Na1  1  0.666667  0.333333  0.750000  1
  Te  Te2  1  0.384544  0.084215  0.250000  1
  Te  Te3  1  0.915785  0.300329  0.250000  1
  Te  Te4  1  0.699671  0.615456  0.250000  1
  Te  Te5  1  0.300329  0.384544  0.750000  1
  Te  Te6  1  0.084215  0.699671  0.750000  1
  Te  Te7  1  0.615456  0.915785  0.750000  1
  Mo  Mo8  1  0.139951  0.181496  0.250000  1
  Mo  Mo9  1  0.041545  0.860049  0.250000  1
  Mo  Mo10  1  0.818504  0.958455  0.250000  1
  Mo  Mo11  1  0.181496  0.041545  0.750000  1
  Mo  Mo12  1  0.958455  0.139951  0.750000  1
  Mo  Mo13  1  0.860049  0.818504  0.750000  1
