# generated using pymatgen
data_Zr9V4S
_symmetry_space_group_name_H-M   'P 1'
_cell_length_a   8.65631967
_cell_length_b   8.65631967
_cell_length_c   8.53839633
_cell_angle_alpha   90.00000000
_cell_angle_beta   90.00000000
_cell_angle_gamma   120.00000000
_symmetry_Int_Tables_number   1
_chemical_formula_structural   Zr9V4S
_chemical_formula_sum   'Zr18 V8 S2'
_cell_volume   554.08132658
_cell_formula_units_Z   2
loop_
 _symmetry_equiv_pos_site_id
 _symmetry_equiv_pos_as_xyz
  1  'x, y, z'
loop_
 _atom_site_type_symbol
 _atom_site_label
 _atom_site_symmetry_multiplicity
 _atom_site_fract_x
 _atom_site_fract_y
 _atom_site_fract_z
 _atom_site_occupancy
  Zr  Zr0  1  0.195530  0.391059  0.948768  1
  Zr  Zr1  1  0.195530  0.804470  0.948768  1
  Zr  Zr2  1  0.458006  0.916013  0.250000  1
  Zr  Zr3  1  0.541994  0.458006  0.750000  1
  Zr  Zr4  1  0.916013  0.458006  0.750000  1
  Zr  Zr5  1  0.083987  0.541994  0.250000  1
  Zr  Zr6  1  0.458006  0.541994  0.250000  1
  Zr  Zr7  1  0.541994  0.083987  0.750000  1
  Zr  Zr8  1  0.608941  0.804470  0.948768  1
  Zr  Zr9  1  0.391059  0.195530  0.448768  1
  Zr  Zr10  1  0.804470  0.608941  0.051232  1
  Zr  Zr11  1  0.804470  0.195530  0.448768  1
  Zr  Zr12  1  0.804470  0.608941  0.448768  1
  Zr  Zr13  1  0.195530  0.804470  0.551232  1
  Zr  Zr14  1  0.608941  0.804470  0.551232  1
  Zr  Zr15  1  0.391059  0.195530  0.051232  1
  Zr  Zr16  1  0.804470  0.195530  0.051232  1
  Zr  Zr17  1  0.195530  0.391059  0.551232  1
  V  V18  1  0.000000  0.000000  0.500000  1
  V  V19  1  0.000000  0.000000  0.000000  1
  V  V20  1  0.896126  0.792253  0.750000  1
  V  V21  1  0.103874  0.896126  0.250000  1
  V  V22  1  0.792253  0.896126  0.250000  1
  V  V23  1  0.207747  0.103874  0.750000  1
  V  V24  1  0.896126  0.103874  0.750000  1
  V  V25  1  0.103874  0.207747  0.250000  1
  S  S26  1  0.666667  0.333333  0.250000  1
  S  S27  1  0.333333  0.666667  0.750000  1
