# generated using pymatgen
data_YbAl2Cu
_symmetry_space_group_name_H-M   'P 1'
_cell_length_a   9.12677339
_cell_length_b   9.12677339
_cell_length_c   9.12677339
_cell_angle_alpha   34.78940872
_cell_angle_beta   34.78940872
_cell_angle_gamma   34.78940872
_symmetry_Int_Tables_number   1
_chemical_formula_structural   YbAl2Cu
_chemical_formula_sum   'Yb3 Al6 Cu3'
_cell_volume   220.89949297
_cell_formula_units_Z   3
loop_
 _symmetry_equiv_pos_site_id
 _symmetry_equiv_pos_as_xyz
  1  'x, y, z'
loop_
 _atom_site_type_symbol
 _atom_site_label
 _atom_site_symmetry_multiplicity
 _atom_site_fract_x
 _atom_site_fract_y
 _atom_site_fract_z
 _atom_site_occupancy
  Yb  Yb0  1  0.000000  0.000000  0.000000  1
  Yb  Yb1  1  0.144842  0.144842  0.144842  1
  Yb  Yb2  1  0.855158  0.855158  0.855158  1
  Al  Al3  1  0.579756  0.579756  0.078659  1
  Al  Al4  1  0.078659  0.579756  0.579756  1
  Al  Al5  1  0.579756  0.078659  0.579756  1
  Al  Al6  1  0.420244  0.921341  0.420244  1
  Al  Al7  1  0.921341  0.420244  0.420244  1
  Al  Al8  1  0.420244  0.420244  0.921341  1
  Cu  Cu9  1  0.334592  0.334592  0.334592  1
  Cu  Cu10  1  0.500000  0.500000  0.500000  1
  Cu  Cu11  1  0.665408  0.665408  0.665408  1
