# generated using pymatgen
data_CsAg5Te3
_symmetry_space_group_name_H-M   'P 1'
_cell_length_a   14.91878425
_cell_length_b   14.91878425
_cell_length_c   4.65454507
_cell_angle_alpha   90.00000000
_cell_angle_beta   90.00000000
_cell_angle_gamma   90.00000000
_symmetry_Int_Tables_number   1
_chemical_formula_structural   CsAg5Te3
_chemical_formula_sum   'Cs4 Ag20 Te12'
_cell_volume   1035.96267106
_cell_formula_units_Z   4
loop_
 _symmetry_equiv_pos_site_id
 _symmetry_equiv_pos_as_xyz
  1  'x, y, z'
loop_
 _atom_site_type_symbol
 _atom_site_label
 _atom_site_symmetry_multiplicity
 _atom_site_fract_x
 _atom_site_fract_y
 _atom_site_fract_z
 _atom_site_occupancy
  Cs  Cs0  1  0.887470  0.112530  0.500000  1
  Cs  Cs1  1  0.612530  0.612530  0.000000  1
  Cs  Cs2  1  0.387470  0.387470  0.000000  1
  Cs  Cs3  1  0.112530  0.887470  0.500000  1
  Ag  Ag4  1  0.678207  0.321793  0.000000  1
  Ag  Ag5  1  0.821793  0.821793  0.500000  1
  Ag  Ag6  1  0.178207  0.178207  0.500000  1
  Ag  Ag7  1  0.321793  0.678207  0.000000  1
  Ag  Ag8  1  0.396052  0.982653  0.500000  1
  Ag  Ag9  1  0.603948  0.017347  0.500000  1
  Ag  Ag10  1  0.517347  0.896052  0.000000  1
  Ag  Ag11  1  0.482653  0.103948  0.000000  1
  Ag  Ag12  1  0.982653  0.396052  0.500000  1
  Ag  Ag13  1  0.896052  0.517347  0.000000  1
  Ag  Ag14  1  0.103948  0.482653  0.000000  1
  Ag  Ag15  1  0.017347  0.603948  0.500000  1
  Ag  Ag16  1  0.420612  0.787577  0.500000  1
  Ag  Ag17  1  0.579388  0.212423  0.500000  1
  Ag  Ag18  1  0.712423  0.920612  0.000000  1
  Ag  Ag19  1  0.287577  0.079388  0.000000  1
  Ag  Ag20  1  0.212423  0.579388  0.500000  1
  Ag  Ag21  1  0.079388  0.287577  0.000000  1
  Ag  Ag22  1  0.920612  0.712423  0.000000  1
  Ag  Ag23  1  0.787577  0.420612  0.500000  1
  Te  Te24  1  0.101552  0.101552  0.000000  1
  Te  Te25  1  0.601552  0.398448  0.500000  1
  Te  Te26  1  0.398448  0.601552  0.500000  1
  Te  Te27  1  0.898448  0.898448  0.000000  1
  Te  Te28  1  0.328627  0.883004  0.000000  1
  Te  Te29  1  0.671373  0.116996  0.000000  1
  Te  Te30  1  0.616996  0.828627  0.500000  1
  Te  Te31  1  0.383004  0.171373  0.500000  1
  Te  Te32  1  0.883004  0.328627  0.000000  1
  Te  Te33  1  0.828627  0.616996  0.500000  1
  Te  Te34  1  0.171373  0.383004  0.500000  1
  Te  Te35  1  0.116996  0.671373  0.000000  1
