# generated using pymatgen
data_Sr3As
_symmetry_space_group_name_H-M   'P 1'
_cell_length_a   7.56626897
_cell_length_b   7.56626897
_cell_length_c   5.78807232
_cell_angle_alpha   90.00000000
_cell_angle_beta   90.00000000
_cell_angle_gamma   120.00000000
_symmetry_Int_Tables_number   1
_chemical_formula_structural   Sr3As
_chemical_formula_sum   'Sr6 As2'
_cell_volume   286.96447191
_cell_formula_units_Z   2
loop_
 _symmetry_equiv_pos_site_id
 _symmetry_equiv_pos_as_xyz
  1  'x, y, z'
loop_
 _atom_site_type_symbol
 _atom_site_label
 _atom_site_symmetry_multiplicity
 _atom_site_fract_x
 _atom_site_fract_y
 _atom_site_fract_z
 _atom_site_occupancy
  Sr  Sr0  1  0.175623  0.351246  0.250000  1
  Sr  Sr1  1  0.648754  0.824377  0.250000  1
  Sr  Sr2  1  0.175623  0.824377  0.250000  1
  Sr  Sr3  1  0.824377  0.648754  0.750000  1
  Sr  Sr4  1  0.351246  0.175623  0.750000  1
  Sr  Sr5  1  0.824377  0.175623  0.750000  1
  As  As6  1  0.333333  0.666667  0.750000  1
  As  As7  1  0.666667  0.333333  0.250000  1
