# generated using pymatgen
data_BaAgO2
_symmetry_space_group_name_H-M   'P 1'
_cell_length_a   9.01880343
_cell_length_b   9.01880343
_cell_length_c   4.40182891
_cell_angle_alpha   90.00000000
_cell_angle_beta   90.00000000
_cell_angle_gamma   154.81020337
_symmetry_Int_Tables_number   1
_chemical_formula_structural   BaAgO2
_chemical_formula_sum   'Ba2 Ag2 O4'
_cell_volume   152.38813076
_cell_formula_units_Z   2
loop_
 _symmetry_equiv_pos_site_id
 _symmetry_equiv_pos_as_xyz
  1  'x, y, z'
loop_
 _atom_site_type_symbol
 _atom_site_label
 _atom_site_symmetry_multiplicity
 _atom_site_fract_x
 _atom_site_fract_y
 _atom_site_fract_z
 _atom_site_occupancy
  Ba  Ba0  1  0.667995  0.332005  0.750000  1
  Ba  Ba1  1  0.332005  0.667995  0.250000  1
  Ag  Ag2  1  0.937161  0.062839  0.750000  1
  Ag  Ag3  1  0.062839  0.937161  0.250000  1
  O  O4  1  0.817127  0.182873  0.750000  1
  O  O5  1  0.058717  0.941283  0.750000  1
  O  O6  1  0.182873  0.817127  0.250000  1
  O  O7  1  0.941283  0.058717  0.250000  1
