# generated using pymatgen
data_Li2UO4
_symmetry_space_group_name_H-M   'P 1'
_cell_length_a   5.18215635
_cell_length_b   6.10495266
_cell_length_c   10.67378569
_cell_angle_alpha   90.00000000
_cell_angle_beta   90.00000000
_cell_angle_gamma   90.00000000
_symmetry_Int_Tables_number   1
_chemical_formula_structural   Li2UO4
_chemical_formula_sum   'Li8 U4 O16'
_cell_volume   337.68462798
_cell_formula_units_Z   4
loop_
 _symmetry_equiv_pos_site_id
 _symmetry_equiv_pos_as_xyz
  1  'x, y, z'
loop_
 _atom_site_type_symbol
 _atom_site_label
 _atom_site_symmetry_multiplicity
 _atom_site_fract_x
 _atom_site_fract_y
 _atom_site_fract_z
 _atom_site_occupancy
  Li  Li0  1  0.540200  0.750000  0.923774  1
  Li  Li1  1  0.040200  0.250000  0.576226  1
  Li  Li2  1  0.459800  0.250000  0.076226  1
  Li  Li3  1  0.959800  0.750000  0.423774  1
  Li  Li4  1  0.500000  0.000000  0.500000  1
  Li  Li5  1  0.000000  0.000000  0.000000  1
  Li  Li6  1  0.500000  0.500000  0.500000  1
  Li  Li7  1  0.000000  0.500000  0.000000  1
  U  U8  1  0.987697  0.750000  0.738383  1
  U  U9  1  0.487697  0.250000  0.761617  1
  U  U10  1  0.012303  0.250000  0.261617  1
  U  U11  1  0.512303  0.750000  0.238383  1
  O  O12  1  0.173777  0.750000  0.897710  1
  O  O13  1  0.214424  0.250000  0.414048  1
  O  O14  1  0.285576  0.250000  0.914048  1
  O  O15  1  0.714424  0.750000  0.085952  1
  O  O16  1  0.266098  0.013647  0.167264  1
  O  O17  1  0.766098  0.986353  0.332736  1
  O  O18  1  0.733902  0.513647  0.832736  1
  O  O19  1  0.233902  0.486353  0.667264  1
  O  O20  1  0.733902  0.986353  0.832736  1
  O  O21  1  0.233902  0.013647  0.667264  1
  O  O22  1  0.266098  0.486353  0.167264  1
  O  O23  1  0.766098  0.513647  0.332736  1
  O  O24  1  0.826223  0.250000  0.102290  1
  O  O25  1  0.326223  0.750000  0.397710  1
  O  O26  1  0.785576  0.750000  0.585952  1
  O  O27  1  0.673777  0.250000  0.602290  1
