# generated using pymatgen
data_Ce3(SiRh)2
_symmetry_space_group_name_H-M   'P 1'
_cell_length_a   5.54733063
_cell_length_b   7.95276427
_cell_length_c   13.17382137
_cell_angle_alpha   90.00000000
_cell_angle_beta   90.00000000
_cell_angle_gamma   90.00000000
_symmetry_Int_Tables_number   1
_chemical_formula_structural   Ce3(SiRh)2
_chemical_formula_sum   'Ce12 Si8 Rh8'
_cell_volume   581.18437688
_cell_formula_units_Z   4
loop_
 _symmetry_equiv_pos_site_id
 _symmetry_equiv_pos_as_xyz
  1  'x, y, z'
loop_
 _atom_site_type_symbol
 _atom_site_label
 _atom_site_symmetry_multiplicity
 _atom_site_fract_x
 _atom_site_fract_y
 _atom_site_fract_z
 _atom_site_occupancy
  Ce  Ce0  1  0.144250  0.241472  0.750000  1
  Ce  Ce1  1  0.855750  0.758528  0.250000  1
  Ce  Ce2  1  0.144250  0.258528  0.250000  1
  Ce  Ce3  1  0.855750  0.741472  0.750000  1
  Ce  Ce4  1  0.641865  0.388525  0.599438  1
  Ce  Ce5  1  0.358135  0.611475  0.099438  1
  Ce  Ce6  1  0.641865  0.111475  0.400562  1
  Ce  Ce7  1  0.358135  0.888525  0.900562  1
  Ce  Ce8  1  0.358135  0.611475  0.400562  1
  Ce  Ce9  1  0.641865  0.388525  0.900562  1
  Ce  Ce10  1  0.358135  0.888525  0.599438  1
  Ce  Ce11  1  0.641865  0.111475  0.099438  1
  Si  Si12  1  0.146567  0.250000  0.500000  1
  Si  Si13  1  0.853433  0.750000  0.000000  1
  Si  Si14  1  0.853433  0.750000  0.500000  1
  Si  Si15  1  0.146567  0.250000  0.000000  1
  Si  Si16  1  0.645582  0.096079  0.750000  1
  Si  Si17  1  0.354418  0.903921  0.250000  1
  Si  Si18  1  0.645582  0.403921  0.250000  1
  Si  Si19  1  0.354418  0.596079  0.750000  1
  Rh  Rh20  1  0.877470  0.034271  0.592598  1
  Rh  Rh21  1  0.122530  0.965729  0.092598  1
  Rh  Rh22  1  0.877470  0.465729  0.407402  1
  Rh  Rh23  1  0.122530  0.534271  0.907402  1
  Rh  Rh24  1  0.122530  0.965729  0.407402  1
  Rh  Rh25  1  0.877470  0.034271  0.907402  1
  Rh  Rh26  1  0.122530  0.534271  0.592598  1
  Rh  Rh27  1  0.877470  0.465729  0.092598  1
