# generated using pymatgen
data_Nd2Be2SiO7
_symmetry_space_group_name_H-M   'P 1'
_cell_length_a   7.51822960
_cell_length_b   7.51822960
_cell_length_c   4.90634418
_cell_angle_alpha   90.00000000
_cell_angle_beta   90.00000000
_cell_angle_gamma   90.00000000
_symmetry_Int_Tables_number   1
_chemical_formula_structural   Nd2Be2SiO7
_chemical_formula_sum   'Nd4 Be4 Si2 O14'
_cell_volume   277.32510097
_cell_formula_units_Z   2
loop_
 _symmetry_equiv_pos_site_id
 _symmetry_equiv_pos_as_xyz
  1  'x, y, z'
loop_
 _atom_site_type_symbol
 _atom_site_label
 _atom_site_symmetry_multiplicity
 _atom_site_fract_x
 _atom_site_fract_y
 _atom_site_fract_z
 _atom_site_occupancy
  Nd  Nd0  1  0.839486  0.660514  0.493981  1
  Nd  Nd1  1  0.339486  0.839486  0.506019  1
  Nd  Nd2  1  0.660514  0.160514  0.506019  1
  Nd  Nd3  1  0.160514  0.339486  0.493981  1
  Be  Be4  1  0.134842  0.634842  0.964341  1
  Be  Be5  1  0.634842  0.865158  0.035659  1
  Be  Be6  1  0.865158  0.365158  0.964341  1
  Be  Be7  1  0.365158  0.134842  0.035659  1
  Si  Si8  1  0.500000  0.500000  0.000000  1
  Si  Si9  1  0.000000  0.000000  0.000000  1
  O  O10  1  0.859409  0.359409  0.287742  1
  O  O11  1  0.359409  0.140591  0.712258  1
  O  O12  1  0.140591  0.640591  0.287742  1
  O  O13  1  0.640591  0.859409  0.712258  1
  O  O14  1  0.500000  0.000000  0.170512  1
  O  O15  1  0.000000  0.500000  0.829488  1
  O  O16  1  0.077299  0.835678  0.809805  1
  O  O17  1  0.164322  0.077299  0.190195  1
  O  O18  1  0.835678  0.922701  0.190195  1
  O  O19  1  0.922701  0.164322  0.809805  1
  O  O20  1  0.577299  0.664322  0.190195  1
  O  O21  1  0.422701  0.335678  0.190195  1
  O  O22  1  0.335678  0.577299  0.809805  1
  O  O23  1  0.664322  0.422701  0.809805  1
