# generated using pymatgen
data_Ho3In
_symmetry_space_group_name_H-M   'P 1'
_cell_length_a   6.88505715
_cell_length_b   6.88505715
_cell_length_c   5.50209256
_cell_angle_alpha   90.00000000
_cell_angle_beta   90.00000000
_cell_angle_gamma   120.00000000
_symmetry_Int_Tables_number   1
_chemical_formula_structural   Ho3In
_chemical_formula_sum   'Ho6 In2'
_cell_volume   225.87783848
_cell_formula_units_Z   2
loop_
 _symmetry_equiv_pos_site_id
 _symmetry_equiv_pos_as_xyz
  1  'x, y, z'
loop_
 _atom_site_type_symbol
 _atom_site_label
 _atom_site_symmetry_multiplicity
 _atom_site_fract_x
 _atom_site_fract_y
 _atom_site_fract_z
 _atom_site_occupancy
  Ho  Ho0  1  0.828719  0.171281  0.750000  1
  Ho  Ho1  1  0.342563  0.171281  0.750000  1
  Ho  Ho2  1  0.828719  0.657437  0.750000  1
  Ho  Ho3  1  0.171281  0.828719  0.250000  1
  Ho  Ho4  1  0.657437  0.828719  0.250000  1
  Ho  Ho5  1  0.171281  0.342563  0.250000  1
  In  In6  1  0.666667  0.333333  0.250000  1
  In  In7  1  0.333333  0.666667  0.750000  1
