# generated using pymatgen
data_HfCoAs
_symmetry_space_group_name_H-M   'P 1'
_cell_length_a   3.82430520
_cell_length_b   6.47205741
_cell_length_c   7.25943243
_cell_angle_alpha   90.00000000
_cell_angle_beta   90.00000000
_cell_angle_gamma   90.00000000
_symmetry_Int_Tables_number   1
_chemical_formula_structural   HfCoAs
_chemical_formula_sum   'Hf4 Co4 As4'
_cell_volume   179.67910359
_cell_formula_units_Z   4
loop_
 _symmetry_equiv_pos_site_id
 _symmetry_equiv_pos_as_xyz
  1  'x, y, z'
loop_
 _atom_site_type_symbol
 _atom_site_label
 _atom_site_symmetry_multiplicity
 _atom_site_fract_x
 _atom_site_fract_y
 _atom_site_fract_z
 _atom_site_occupancy
  Hf  Hf0  1  0.250000  0.520106  0.186986  1
  Hf  Hf1  1  0.750000  0.479894  0.813014  1
  Hf  Hf2  1  0.250000  0.020106  0.313014  1
  Hf  Hf3  1  0.750000  0.979894  0.686986  1
  Co  Co4  1  0.250000  0.638873  0.563677  1
  Co  Co5  1  0.750000  0.361127  0.436323  1
  Co  Co6  1  0.250000  0.138873  0.936323  1
  Co  Co7  1  0.750000  0.861127  0.063677  1
  As  As8  1  0.750000  0.732149  0.384221  1
  As  As9  1  0.250000  0.267851  0.615779  1
  As  As10  1  0.750000  0.232149  0.115779  1
  As  As11  1  0.250000  0.767851  0.884221  1
