# generated using pymatgen
data_MgTa
_symmetry_space_group_name_H-M   'P 1'
_cell_length_a   2.86245429
_cell_length_b   4.87382586
_cell_length_c   5.53530625
_cell_angle_alpha   90.00000000
_cell_angle_beta   90.00000000
_cell_angle_gamma   90.00000000
_symmetry_Int_Tables_number   1
_chemical_formula_structural   MgTa
_chemical_formula_sum   'Mg2 Ta2'
_cell_volume   77.22363174
_cell_formula_units_Z   2
loop_
 _symmetry_equiv_pos_site_id
 _symmetry_equiv_pos_as_xyz
  1  'x, y, z'
loop_
 _atom_site_type_symbol
 _atom_site_label
 _atom_site_symmetry_multiplicity
 _atom_site_fract_x
 _atom_site_fract_y
 _atom_site_fract_z
 _atom_site_occupancy
  Mg  Mg0  1  0.000000  0.750000  0.142499  1
  Mg  Mg1  1  0.000000  0.250000  0.857501  1
  Ta  Ta2  1  0.500000  0.250000  0.379358  1
  Ta  Ta3  1  0.500000  0.750000  0.620642  1
