# generated using pymatgen
data_Pr2Co12P7
_symmetry_space_group_name_H-M   'P 1'
_cell_length_a   9.09085728
_cell_length_b   9.09085728
_cell_length_c   3.63851280
_cell_angle_alpha   90.00000000
_cell_angle_beta   90.00000000
_cell_angle_gamma   120.00000000
_symmetry_Int_Tables_number   1
_chemical_formula_structural   Pr2Co12P7
_chemical_formula_sum   'Pr2 Co12 P7'
_cell_volume   260.41393375
_cell_formula_units_Z   1
loop_
 _symmetry_equiv_pos_site_id
 _symmetry_equiv_pos_as_xyz
  1  'x, y, z'
loop_
 _atom_site_type_symbol
 _atom_site_label
 _atom_site_symmetry_multiplicity
 _atom_site_fract_x
 _atom_site_fract_y
 _atom_site_fract_z
 _atom_site_occupancy
  Pr  Pr0  1  0.333333  0.666667  0.000000  1
  Pr  Pr1  1  0.666667  0.333333  0.500000  1
  Co  Co2  1  0.431250  0.057568  0.000000  1
  Co  Co3  1  0.942432  0.373681  0.000000  1
  Co  Co4  1  0.626319  0.568750  0.000000  1
  Co  Co5  1  0.380006  0.429903  0.500000  1
  Co  Co6  1  0.570097  0.950103  0.500000  1
  Co  Co7  1  0.049897  0.619994  0.500000  1
  Co  Co8  1  0.149388  0.269367  0.000000  1
  Co  Co9  1  0.730633  0.880021  0.000000  1
  Co  Co10  1  0.119979  0.850612  0.000000  1
  Co  Co11  1  0.227423  0.100695  0.500000  1
  Co  Co12  1  0.899305  0.126729  0.500000  1
  Co  Co13  1  0.873271  0.772577  0.500000  1
  P  P14  1  0.103682  0.396187  0.500000  1
  P  P15  1  0.603813  0.707496  0.500000  1
  P  P16  1  0.292504  0.896318  0.500000  1
  P  P17  1  0.000000  0.000000  0.000000  1
  P  P18  1  0.400551  0.294198  0.000000  1
  P  P19  1  0.705802  0.106353  0.000000  1
  P  P20  1  0.893647  0.599449  0.000000  1
