# generated using pymatgen
data_Sc3Co2Si3
_symmetry_space_group_name_H-M   'P 1'
_cell_length_a   5.34130485
_cell_length_b   5.34130485
_cell_length_c   12.80244175
_cell_angle_alpha   90.00000000
_cell_angle_beta   90.00000000
_cell_angle_gamma   136.87448330
_symmetry_Int_Tables_number   1
_chemical_formula_structural   Sc3Co2Si3
_chemical_formula_sum   'Sc6 Co4 Si6'
_cell_volume   249.68294923
_cell_formula_units_Z   2
loop_
 _symmetry_equiv_pos_site_id
 _symmetry_equiv_pos_as_xyz
  1  'x, y, z'
loop_
 _atom_site_type_symbol
 _atom_site_label
 _atom_site_symmetry_multiplicity
 _atom_site_fract_x
 _atom_site_fract_y
 _atom_site_fract_z
 _atom_site_occupancy
  Sc  Sc0  1  0.857025  0.142975  0.750000  1
  Sc  Sc1  1  0.579864  0.420136  0.613107  1
  Sc  Sc2  1  0.579864  0.420136  0.886893  1
  Sc  Sc3  1  0.420136  0.579864  0.113107  1
  Sc  Sc4  1  0.142975  0.857025  0.250000  1
  Sc  Sc5  1  0.420136  0.579864  0.386893  1
  Co  Co6  1  0.284734  0.715266  0.583166  1
  Co  Co7  1  0.715266  0.284734  0.083166  1
  Co  Co8  1  0.284734  0.715266  0.916834  1
  Co  Co9  1  0.715266  0.284734  0.416834  1
  Si  Si10  1  0.836058  0.163942  0.250000  1
  Si  Si11  1  0.113645  0.886355  0.459230  1
  Si  Si12  1  0.113645  0.886355  0.040770  1
  Si  Si13  1  0.886355  0.113645  0.540770  1
  Si  Si14  1  0.163942  0.836058  0.750000  1
  Si  Si15  1  0.886355  0.113645  0.959230  1
