# generated using pymatgen
data_Rb3Hf
_symmetry_space_group_name_H-M   'P 1'
_cell_length_a   7.51681463
_cell_length_b   7.51681463
_cell_length_c   7.51681463
_cell_angle_alpha   131.23656811
_cell_angle_beta   131.23656811
_cell_angle_gamma   71.43749050
_symmetry_Int_Tables_number   1
_chemical_formula_structural   Rb3Hf
_chemical_formula_sum   'Rb3 Hf1'
_cell_volume   235.05445195
_cell_formula_units_Z   1
loop_
 _symmetry_equiv_pos_site_id
 _symmetry_equiv_pos_as_xyz
  1  'x, y, z'
loop_
 _atom_site_type_symbol
 _atom_site_label
 _atom_site_symmetry_multiplicity
 _atom_site_fract_x
 _atom_site_fract_y
 _atom_site_fract_z
 _atom_site_occupancy
  Rb  Rb0  1  0.250000  0.750000  0.500000  1
  Rb  Rb1  1  0.750000  0.250000  0.500000  1
  Rb  Rb2  1  0.500000  0.500000  0.000000  1
  Hf  Hf3  1  0.000000  0.000000  0.000000  1
