# generated using pymatgen
data_CsAsF6
_symmetry_space_group_name_H-M   'P 1'
_cell_length_a   5.33309131
_cell_length_b   5.33309131
_cell_length_c   5.33309131
_cell_angle_alpha   96.40015868
_cell_angle_beta   96.40015868
_cell_angle_gamma   96.40015868
_symmetry_Int_Tables_number   1
_chemical_formula_structural   CsAsF6
_chemical_formula_sum   'Cs1 As1 F6'
_cell_volume   148.61470932
_cell_formula_units_Z   1
loop_
 _symmetry_equiv_pos_site_id
 _symmetry_equiv_pos_as_xyz
  1  'x, y, z'
loop_
 _atom_site_type_symbol
 _atom_site_label
 _atom_site_symmetry_multiplicity
 _atom_site_fract_x
 _atom_site_fract_y
 _atom_site_fract_z
 _atom_site_occupancy
  Cs  Cs0  1  0.500000  0.500000  0.500000  1
  As  As1  1  0.000000  0.000000  0.000000  1
  F  F2  1  0.921125  0.264779  0.195094  1
  F  F3  1  0.195094  0.921125  0.264779  1
  F  F4  1  0.735221  0.804906  0.078875  1
  F  F5  1  0.804906  0.078875  0.735221  1
  F  F6  1  0.078875  0.735221  0.804906  1
  F  F7  1  0.264779  0.195094  0.921125  1
