# generated using pymatgen
data_Ce2US5
_symmetry_space_group_name_H-M   'P 1'
_cell_length_a   7.43289060
_cell_length_b   8.07890011
_cell_length_c   11.78506043
_cell_angle_alpha   90.00000000
_cell_angle_beta   90.00000000
_cell_angle_gamma   90.00000000
_symmetry_Int_Tables_number   1
_chemical_formula_structural   Ce2US5
_chemical_formula_sum   'Ce8 U4 S20'
_cell_volume   707.68793718
_cell_formula_units_Z   4
loop_
 _symmetry_equiv_pos_site_id
 _symmetry_equiv_pos_as_xyz
  1  'x, y, z'
loop_
 _atom_site_type_symbol
 _atom_site_label
 _atom_site_symmetry_multiplicity
 _atom_site_fract_x
 _atom_site_fract_y
 _atom_site_fract_z
 _atom_site_occupancy
  Ce  Ce0  1  0.531090  0.998728  0.323566  1
  Ce  Ce1  1  0.031090  0.001272  0.176434  1
  Ce  Ce2  1  0.968910  0.501272  0.823566  1
  Ce  Ce3  1  0.468910  0.498728  0.676434  1
  Ce  Ce4  1  0.468910  0.001272  0.676434  1
  Ce  Ce5  1  0.968910  0.998728  0.823566  1
  Ce  Ce6  1  0.031090  0.498728  0.176434  1
  Ce  Ce7  1  0.531090  0.501272  0.323566  1
  U  U8  1  0.067696  0.750000  0.492592  1
  U  U9  1  0.567696  0.250000  0.007408  1
  U  U10  1  0.432304  0.750000  0.992592  1
  U  U11  1  0.932304  0.250000  0.507408  1
  S  S12  1  0.452601  0.750000  0.499010  1
  S  S13  1  0.952601  0.250000  0.000990  1
  S  S14  1  0.047399  0.750000  0.999010  1
  S  S15  1  0.547399  0.250000  0.500990  1
  S  S16  1  0.836362  0.750000  0.310356  1
  S  S17  1  0.336362  0.250000  0.189644  1
  S  S18  1  0.663638  0.750000  0.810356  1
  S  S19  1  0.163638  0.250000  0.689644  1
  S  S20  1  0.832697  0.540500  0.592945  1
  S  S21  1  0.332697  0.459500  0.907055  1
  S  S22  1  0.667303  0.959500  0.092945  1
  S  S23  1  0.167303  0.040500  0.407055  1
  S  S24  1  0.167303  0.459500  0.407055  1
  S  S25  1  0.667303  0.540500  0.092945  1
  S  S26  1  0.332697  0.040500  0.907055  1
  S  S27  1  0.832697  0.959500  0.592945  1
  S  S28  1  0.188992  0.750000  0.714623  1
  S  S29  1  0.688992  0.250000  0.785377  1
  S  S30  1  0.311008  0.750000  0.214623  1
  S  S31  1  0.811008  0.250000  0.285377  1
