# generated using pymatgen
data_V3Cd
_symmetry_space_group_name_H-M   'P 1'
_cell_length_a   5.65568178
_cell_length_b   5.65568178
_cell_length_c   4.48540558
_cell_angle_alpha   90.00000000
_cell_angle_beta   90.00000000
_cell_angle_gamma   120.00000000
_symmetry_Int_Tables_number   1
_chemical_formula_structural   V3Cd
_chemical_formula_sum   'V6 Cd2'
_cell_volume   124.25168352
_cell_formula_units_Z   2
loop_
 _symmetry_equiv_pos_site_id
 _symmetry_equiv_pos_as_xyz
  1  'x, y, z'
loop_
 _atom_site_type_symbol
 _atom_site_label
 _atom_site_symmetry_multiplicity
 _atom_site_fract_x
 _atom_site_fract_y
 _atom_site_fract_z
 _atom_site_occupancy
  V  V0  1  0.151000  0.302000  0.250000  1
  V  V1  1  0.698000  0.849000  0.250000  1
  V  V2  1  0.151000  0.849000  0.250000  1
  V  V3  1  0.849000  0.698000  0.750000  1
  V  V4  1  0.302000  0.151000  0.750000  1
  V  V5  1  0.849000  0.151000  0.750000  1
  Cd  Cd6  1  0.333333  0.666667  0.750000  1
  Cd  Cd7  1  0.666667  0.333333  0.250000  1
