# generated using pymatgen
data_Ho3Mg
_symmetry_space_group_name_H-M   'P 1'
_cell_length_a   6.98047637
_cell_length_b   6.98047637
_cell_length_c   5.52604730
_cell_angle_alpha   90.00000000
_cell_angle_beta   90.00000000
_cell_angle_gamma   120.00000000
_symmetry_Int_Tables_number   1
_chemical_formula_structural   Ho3Mg
_chemical_formula_sum   'Ho6 Mg2'
_cell_volume   233.19291525
_cell_formula_units_Z   2
loop_
 _symmetry_equiv_pos_site_id
 _symmetry_equiv_pos_as_xyz
  1  'x, y, z'
loop_
 _atom_site_type_symbol
 _atom_site_label
 _atom_site_symmetry_multiplicity
 _atom_site_fract_x
 _atom_site_fract_y
 _atom_site_fract_z
 _atom_site_occupancy
  Ho  Ho0  1  0.169610  0.339220  0.250000  1
  Ho  Ho1  1  0.660780  0.830390  0.250000  1
  Ho  Ho2  1  0.169610  0.830390  0.250000  1
  Ho  Ho3  1  0.830390  0.169610  0.750000  1
  Ho  Ho4  1  0.339220  0.169610  0.750000  1
  Ho  Ho5  1  0.830390  0.660780  0.750000  1
  Mg  Mg6  1  0.666667  0.333333  0.250000  1
  Mg  Mg7  1  0.333333  0.666667  0.750000  1
