# generated using pymatgen
data_CdP2
_symmetry_space_group_name_H-M   'P 1'
_cell_length_a   5.36388053
_cell_length_b   5.36388053
_cell_length_c   20.01252150
_cell_angle_alpha   90.00000000
_cell_angle_beta   90.00000000
_cell_angle_gamma   90.00000000
_symmetry_Int_Tables_number   1
_chemical_formula_structural   CdP2
_chemical_formula_sum   'Cd8 P16'
_cell_volume   575.78454556
_cell_formula_units_Z   8
loop_
 _symmetry_equiv_pos_site_id
 _symmetry_equiv_pos_as_xyz
  1  'x, y, z'
loop_
 _atom_site_type_symbol
 _atom_site_label
 _atom_site_symmetry_multiplicity
 _atom_site_fract_x
 _atom_site_fract_y
 _atom_site_fract_z
 _atom_site_occupancy
  Cd  Cd0  1  0.347122  0.873508  0.451537  1
  Cd  Cd1  1  0.652878  0.126492  0.951537  1
  Cd  Cd2  1  0.873508  0.347122  0.548463  1
  Cd  Cd3  1  0.373508  0.152878  0.701537  1
  Cd  Cd4  1  0.626492  0.847122  0.201537  1
  Cd  Cd5  1  0.152878  0.373508  0.298463  1
  Cd  Cd6  1  0.847122  0.626492  0.798463  1
  Cd  Cd7  1  0.126492  0.652878  0.048463  1
  P  P8  1  0.524153  0.520465  0.374122  1
  P  P9  1  0.475847  0.479535  0.874122  1
  P  P10  1  0.520465  0.524153  0.625878  1
  P  P11  1  0.020465  0.975847  0.624122  1
  P  P12  1  0.979535  0.024153  0.124122  1
  P  P13  1  0.975847  0.020465  0.375878  1
  P  P14  1  0.024153  0.979535  0.875878  1
  P  P15  1  0.479535  0.475847  0.125878  1
  P  P16  1  0.785816  0.307520  0.065480  1
  P  P17  1  0.192480  0.285816  0.815480  1
  P  P18  1  0.807520  0.714184  0.315480  1
  P  P19  1  0.285816  0.192480  0.184520  1
  P  P20  1  0.714184  0.807520  0.684520  1
  P  P21  1  0.214184  0.692480  0.565480  1
  P  P22  1  0.307520  0.785816  0.934520  1
  P  P23  1  0.692480  0.214184  0.434520  1
