# generated using pymatgen
data_Tm2Co3Si5
_symmetry_space_group_name_H-M   'P 1'
_cell_length_a   7.84066188
_cell_length_b   7.84066188
_cell_length_c   7.84066188
_cell_angle_alpha   139.09396456
_cell_angle_beta   105.44883920
_cell_angle_gamma   88.73008884
_symmetry_Int_Tables_number   1
_chemical_formula_structural   Tm2Co3Si5
_chemical_formula_sum   'Tm4 Co6 Si10'
_cell_volume   291.71311270
_cell_formula_units_Z   2
loop_
 _symmetry_equiv_pos_site_id
 _symmetry_equiv_pos_as_xyz
  1  'x, y, z'
loop_
 _atom_site_type_symbol
 _atom_site_label
 _atom_site_symmetry_multiplicity
 _atom_site_fract_x
 _atom_site_fract_y
 _atom_site_fract_z
 _atom_site_occupancy
  Tm  Tm0  1  0.097385  0.864804  0.232582  1
  Tm  Tm1  1  0.632222  0.364804  0.267418  1
  Tm  Tm2  1  0.367778  0.635196  0.732582  1
  Tm  Tm3  1  0.902615  0.135196  0.767418  1
  Co  Co4  1  0.752638  0.861364  0.891273  1
  Co  Co5  1  0.247362  0.138636  0.108727  1
  Co  Co6  1  0.500000  0.750000  0.250000  1
  Co  Co7  1  0.500000  0.250000  0.750000  1
  Co  Co8  1  0.970091  0.361364  0.608727  1
  Co  Co9  1  0.029909  0.638636  0.391273  1
  Si  Si10  1  0.725166  0.975166  0.250000  1
  Si  Si11  1  0.274834  0.524834  0.250000  1
  Si  Si12  1  0.000000  0.750000  0.750000  1
  Si  Si13  1  0.440139  0.100139  0.339999  1
  Si  Si14  1  0.559861  0.899861  0.660001  1
  Si  Si15  1  0.239860  0.399861  0.839999  1
  Si  Si16  1  0.000000  0.250000  0.250000  1
  Si  Si17  1  0.760140  0.600139  0.160001  1
  Si  Si18  1  0.274834  0.024834  0.750000  1
  Si  Si19  1  0.725166  0.475166  0.750000  1
