# generated using pymatgen
data_Mn2N
_symmetry_space_group_name_H-M   'P 1'
_cell_length_a   4.39732302
_cell_length_b   4.82691896
_cell_length_c   5.54782889
_cell_angle_alpha   90.00000000
_cell_angle_beta   90.00000000
_cell_angle_gamma   90.00000000
_symmetry_Int_Tables_number   1
_chemical_formula_structural   Mn2N
_chemical_formula_sum   'Mn8 N4'
_cell_volume   117.75556337
_cell_formula_units_Z   4
loop_
 _symmetry_equiv_pos_site_id
 _symmetry_equiv_pos_as_xyz
  1  'x, y, z'
loop_
 _atom_site_type_symbol
 _atom_site_label
 _atom_site_symmetry_multiplicity
 _atom_site_fract_x
 _atom_site_fract_y
 _atom_site_fract_z
 _atom_site_occupancy
  Mn  Mn0  1  0.250086  0.082902  0.379009  1
  Mn  Mn1  1  0.750086  0.917098  0.120991  1
  Mn  Mn2  1  0.249914  0.582902  0.120991  1
  Mn  Mn3  1  0.749914  0.417098  0.379009  1
  Mn  Mn4  1  0.250086  0.582902  0.620991  1
  Mn  Mn5  1  0.750086  0.417098  0.879009  1
  Mn  Mn6  1  0.249914  0.082902  0.879009  1
  Mn  Mn7  1  0.749914  0.917098  0.620991  1
  N  N8  1  0.500000  0.750000  0.366190  1
  N  N9  1  0.000000  0.250000  0.133810  1
  N  N10  1  0.500000  0.250000  0.633810  1
  N  N11  1  0.000000  0.750000  0.866190  1
