# generated using pymatgen
data_BaReN3
_symmetry_space_group_name_H-M   'P 1'
_cell_length_a   8.02590002
_cell_length_b   8.02590002
_cell_length_c   6.24121195
_cell_angle_alpha   80.70891750
_cell_angle_beta   99.29108250
_cell_angle_gamma   89.33412209
_symmetry_Int_Tables_number   1
_chemical_formula_structural   BaReN3
_chemical_formula_sum   'Ba4 Re4 N12'
_cell_volume   391.25551288
_cell_formula_units_Z   4
loop_
 _symmetry_equiv_pos_site_id
 _symmetry_equiv_pos_as_xyz
  1  'x, y, z'
loop_
 _atom_site_type_symbol
 _atom_site_label
 _atom_site_symmetry_multiplicity
 _atom_site_fract_x
 _atom_site_fract_y
 _atom_site_fract_z
 _atom_site_occupancy
  Ba  Ba0  1  0.327180  0.327180  0.250000  1
  Ba  Ba1  1  0.099710  0.099710  0.750000  1
  Ba  Ba2  1  0.672820  0.672820  0.750000  1
  Ba  Ba3  1  0.900290  0.900290  0.250000  1
  Re  Re4  1  0.630780  0.205220  0.758590  1
  Re  Re5  1  0.205220  0.630780  0.741410  1
  Re  Re6  1  0.794780  0.369220  0.258590  1
  Re  Re7  1  0.369220  0.794780  0.241410  1
  N  N8  1  0.019650  0.764430  0.677830  1
  N  N9  1  0.319530  0.644590  0.490600  1
  N  N10  1  0.680470  0.355410  0.509400  1
  N  N11  1  0.235570  0.980350  0.177830  1
  N  N12  1  0.578200  0.851640  0.319270  1
  N  N13  1  0.980350  0.235570  0.322170  1
  N  N14  1  0.421800  0.148360  0.680730  1
  N  N15  1  0.148360  0.421800  0.819270  1
  N  N16  1  0.851640  0.578200  0.180730  1
  N  N17  1  0.355410  0.680470  0.990600  1
  N  N18  1  0.644590  0.319530  0.009400  1
  N  N19  1  0.764430  0.019650  0.822170  1
