# generated using pymatgen
data_BC
_symmetry_space_group_name_H-M   'P 1'
_cell_length_a   2.59166870
_cell_length_b   2.59166870
_cell_length_c   4.65746372
_cell_angle_alpha   90.00000000
_cell_angle_beta   90.00000000
_cell_angle_gamma   120.00000000
_symmetry_Int_Tables_number   1
_chemical_formula_structural   BC
_chemical_formula_sum   'B2 C2'
_cell_volume   27.09187601
_cell_formula_units_Z   2
loop_
 _symmetry_equiv_pos_site_id
 _symmetry_equiv_pos_as_xyz
  1  'x, y, z'
loop_
 _atom_site_type_symbol
 _atom_site_label
 _atom_site_symmetry_multiplicity
 _atom_site_fract_x
 _atom_site_fract_y
 _atom_site_fract_z
 _atom_site_occupancy
  B  B0  1  0.333333  0.666667  0.019483  1
  B  B1  1  0.666667  0.333333  0.519483  1
  C  C2  1  0.333333  0.666667  0.355518  1
  C  C3  1  0.666667  0.333333  0.855518  1
