# generated using pymatgen
data_Li6PS5Cl
_symmetry_space_group_name_H-M   'P 1'
_cell_length_a   7.26870331
_cell_length_b   7.26870331
_cell_length_c   7.26870331
_cell_angle_alpha   60.00000000
_cell_angle_beta   60.00000000
_cell_angle_gamma   60.00000000
_symmetry_Int_Tables_number   1
_chemical_formula_structural   Li6PS5Cl
_chemical_formula_sum   'Li6 P1 S5 Cl1'
_cell_volume   271.55376543
_cell_formula_units_Z   1
loop_
 _symmetry_equiv_pos_site_id
 _symmetry_equiv_pos_as_xyz
  1  'x, y, z'
loop_
 _atom_site_type_symbol
 _atom_site_label
 _atom_site_symmetry_multiplicity
 _atom_site_fract_x
 _atom_site_fract_y
 _atom_site_fract_z
 _atom_site_occupancy
  Li  Li0  1  0.523113  0.523113  0.976887  1
  Li  Li1  1  0.976887  0.976887  0.523113  1
  Li  Li2  1  0.523113  0.976887  0.976887  1
  Li  Li3  1  0.976887  0.523113  0.523113  1
  Li  Li4  1  0.976887  0.523113  0.976887  1
  Li  Li5  1  0.523113  0.976887  0.523113  1
  P  P6  1  0.500000  0.500000  0.500000  1
  S  S7  1  0.384478  0.384478  0.384478  1
  S  S8  1  0.846567  0.384478  0.384478  1
  S  S9  1  0.384478  0.384478  0.846567  1
  S  S10  1  0.384478  0.846567  0.384478  1
  S  S11  1  0.750000  0.750000  0.750000  1
  Cl  Cl12  1  0.000000  0.000000  0.000000  1
