# generated using pymatgen
data_ZnSn3
_symmetry_space_group_name_H-M   'P 1'
_cell_length_a   6.57096123
_cell_length_b   6.57096123
_cell_length_c   5.45682765
_cell_angle_alpha   90.00000000
_cell_angle_beta   90.00000000
_cell_angle_gamma   120.00000000
_symmetry_Int_Tables_number   1
_chemical_formula_structural   ZnSn3
_chemical_formula_sum   'Zn2 Sn6'
_cell_volume   204.04627866
_cell_formula_units_Z   2
loop_
 _symmetry_equiv_pos_site_id
 _symmetry_equiv_pos_as_xyz
  1  'x, y, z'
loop_
 _atom_site_type_symbol
 _atom_site_label
 _atom_site_symmetry_multiplicity
 _atom_site_fract_x
 _atom_site_fract_y
 _atom_site_fract_z
 _atom_site_occupancy
  Zn  Zn0  1  0.333333  0.666667  0.750000  1
  Zn  Zn1  1  0.666667  0.333333  0.250000  1
  Sn  Sn2  1  0.169169  0.338338  0.250000  1
  Sn  Sn3  1  0.661662  0.830831  0.250000  1
  Sn  Sn4  1  0.169169  0.830831  0.250000  1
  Sn  Sn5  1  0.830831  0.661662  0.750000  1
  Sn  Sn6  1  0.338338  0.169169  0.750000  1
  Sn  Sn7  1  0.830831  0.169169  0.750000  1
