# generated using pymatgen
data_TbMn12
_symmetry_space_group_name_H-M   'P 1'
_cell_length_a   6.34064536
_cell_length_b   6.34064536
_cell_length_c   6.34064536
_cell_angle_alpha   97.68719753
_cell_angle_beta   97.68719753
_cell_angle_gamma   137.09390632
_symmetry_Int_Tables_number   1
_chemical_formula_structural   TbMn12
_chemical_formula_sum   'Tb1 Mn12'
_cell_volume   161.52400732
_cell_formula_units_Z   1
loop_
 _symmetry_equiv_pos_site_id
 _symmetry_equiv_pos_as_xyz
  1  'x, y, z'
loop_
 _atom_site_type_symbol
 _atom_site_label
 _atom_site_symmetry_multiplicity
 _atom_site_fract_x
 _atom_site_fract_y
 _atom_site_fract_z
 _atom_site_occupancy
  Tb  Tb0  1  0.000000  0.000000  0.000000  1
  Mn  Mn1  1  0.000000  0.500000  0.000000  1
  Mn  Mn2  1  0.500000  0.000000  0.000000  1
  Mn  Mn3  1  0.500000  0.500000  0.500000  1
  Mn  Mn4  1  0.000000  0.000000  0.500000  1
  Mn  Mn5  1  0.361369  0.000000  0.361369  1
  Mn  Mn6  1  0.638631  0.000000  0.638631  1
  Mn  Mn7  1  1.000000  0.361369  0.361369  1
  Mn  Mn8  1  1.000000  0.638631  0.638631  1
  Mn  Mn9  1  0.271245  0.500000  0.771245  1
  Mn  Mn10  1  0.728755  0.500000  0.228755  1
  Mn  Mn11  1  0.500000  0.271245  0.771245  1
  Mn  Mn12  1  0.500000  0.728755  0.228755  1
