# generated using pymatgen
data_Si3N4
_symmetry_space_group_name_H-M   'P 1'
_cell_length_a   7.66030736
_cell_length_b   7.66030736
_cell_length_c   2.92508500
_cell_angle_alpha   90.00000000
_cell_angle_beta   90.00000000
_cell_angle_gamma   120.00000000
_symmetry_Int_Tables_number   1
_chemical_formula_structural   Si3N4
_chemical_formula_sum   'Si6 N8'
_cell_volume   148.64883613
_cell_formula_units_Z   2
loop_
 _symmetry_equiv_pos_site_id
 _symmetry_equiv_pos_as_xyz
  1  'x, y, z'
loop_
 _atom_site_type_symbol
 _atom_site_label
 _atom_site_symmetry_multiplicity
 _atom_site_fract_x
 _atom_site_fract_y
 _atom_site_fract_z
 _atom_site_occupancy
  Si  Si0  1  0.231244  0.825137  0.750000  1
  Si  Si1  1  0.406107  0.231244  0.250000  1
  Si  Si2  1  0.825137  0.593893  0.250000  1
  Si  Si3  1  0.174863  0.406107  0.750000  1
  Si  Si4  1  0.593893  0.768756  0.750000  1
  Si  Si5  1  0.768756  0.174863  0.250000  1
  N  N6  1  0.333333  0.666667  0.750000  1
  N  N7  1  0.666667  0.333333  0.250000  1
  N  N8  1  0.969321  0.670057  0.750000  1
  N  N9  1  0.299264  0.969321  0.250000  1
  N  N10  1  0.670057  0.700736  0.250000  1
  N  N11  1  0.329943  0.299264  0.750000  1
  N  N12  1  0.030679  0.329943  0.250000  1
  N  N13  1  0.700736  0.030679  0.750000  1
