# generated using pymatgen
data_TbAgSe2
_symmetry_space_group_name_H-M   'P 1'
_cell_length_a   7.26866414
_cell_length_b   7.26866414
_cell_length_c   7.26866414
_cell_angle_alpha   133.39400760
_cell_angle_beta   133.39400760
_cell_angle_gamma   68.03605680
_symmetry_Int_Tables_number   1
_chemical_formula_structural   TbAgSe2
_chemical_formula_sum   'Tb2 Ag2 Se4'
_cell_volume   199.25267808
_cell_formula_units_Z   2
loop_
 _symmetry_equiv_pos_site_id
 _symmetry_equiv_pos_as_xyz
  1  'x, y, z'
loop_
 _atom_site_type_symbol
 _atom_site_label
 _atom_site_symmetry_multiplicity
 _atom_site_fract_x
 _atom_site_fract_y
 _atom_site_fract_z
 _atom_site_occupancy
  Tb  Tb0  1  0.508980  0.008980  0.500000  1
  Tb  Tb1  1  0.758980  0.758980  0.000000  1
  Ag  Ag2  1  0.013580  0.513580  0.500000  1
  Ag  Ag3  1  0.263580  0.263580  0.000000  1
  Se  Se4  1  0.748855  0.248855  0.500000  1
  Se  Se5  1  0.998855  0.998855  0.000000  1
  Se  Se6  1  0.268584  0.768584  0.500000  1
  Se  Se7  1  0.518584  0.518584  0.000000  1
