# generated using pymatgen
data_GaP
_symmetry_space_group_name_H-M   'P 1'
_cell_length_a   6.74350855
_cell_length_b   6.74350855
_cell_length_c   6.74350855
_cell_angle_alpha   90.00000000
_cell_angle_beta   90.00000000
_cell_angle_gamma   90.00000000
_symmetry_Int_Tables_number   1
_chemical_formula_structural   GaP
_chemical_formula_sum   'Ga8 P8'
_cell_volume   306.66042797
_cell_formula_units_Z   8
loop_
 _symmetry_equiv_pos_site_id
 _symmetry_equiv_pos_as_xyz
  1  'x, y, z'
loop_
 _atom_site_type_symbol
 _atom_site_label
 _atom_site_symmetry_multiplicity
 _atom_site_fract_x
 _atom_site_fract_y
 _atom_site_fract_z
 _atom_site_occupancy
  Ga  Ga0  1  0.341231  0.341231  0.341231  1
  Ga  Ga1  1  0.158769  0.658769  0.841231  1
  Ga  Ga2  1  0.841231  0.158769  0.658769  1
  Ga  Ga3  1  0.658769  0.841231  0.158769  1
  Ga  Ga4  1  0.658769  0.658769  0.658769  1
  Ga  Ga5  1  0.841231  0.341231  0.158769  1
  Ga  Ga6  1  0.158769  0.841231  0.341231  1
  Ga  Ga7  1  0.341231  0.158769  0.841231  1
  P  P8  1  0.141035  0.141035  0.141035  1
  P  P9  1  0.358965  0.858965  0.641035  1
  P  P10  1  0.641035  0.358965  0.858965  1
  P  P11  1  0.858965  0.641035  0.358965  1
  P  P12  1  0.858965  0.858965  0.858965  1
  P  P13  1  0.641035  0.141035  0.358965  1
  P  P14  1  0.358965  0.641035  0.141035  1
  P  P15  1  0.141035  0.358965  0.641035  1
