# generated using pymatgen
data_KGaPO4F
_symmetry_space_group_name_H-M   'P 1'
_cell_length_a   6.38148429
_cell_length_b   10.59502504
_cell_length_c   12.91522421
_cell_angle_alpha   90.00000000
_cell_angle_beta   90.00000000
_cell_angle_gamma   90.00000000
_symmetry_Int_Tables_number   1
_chemical_formula_structural   KGaPO4F
_chemical_formula_sum   'K8 Ga8 P8 O32 F8'
_cell_volume   873.22395647
_cell_formula_units_Z   8
loop_
 _symmetry_equiv_pos_site_id
 _symmetry_equiv_pos_as_xyz
  1  'x, y, z'
loop_
 _atom_site_type_symbol
 _atom_site_label
 _atom_site_symmetry_multiplicity
 _atom_site_fract_x
 _atom_site_fract_y
 _atom_site_fract_z
 _atom_site_occupancy
  K  K0  1  0.224594  0.815237  0.120260  1
  K  K1  1  0.724594  0.315237  0.379740  1
  K  K2  1  0.275406  0.815237  0.620260  1
  K  K3  1  0.695337  0.071627  0.604290  1
  K  K4  1  0.195337  0.571627  0.895710  1
  K  K5  1  0.304663  0.571627  0.395710  1
  K  K6  1  0.804663  0.071627  0.104290  1
  K  K7  1  0.775406  0.315237  0.879740  1
  Ga  Ga8  1  0.494699  0.014141  0.888209  1
  Ga  Ga9  1  0.505301  0.514141  0.111791  1
  Ga  Ga10  1  0.005301  0.014141  0.388209  1
  Ga  Ga11  1  0.252140  0.263344  0.746080  1
  Ga  Ga12  1  0.747860  0.763344  0.253920  1
  Ga  Ga13  1  0.247860  0.263344  0.246080  1
  Ga  Ga14  1  0.752140  0.763344  0.753920  1
  Ga  Ga15  1  0.994699  0.514141  0.611791  1
  P  P16  1  0.000734  0.015732  0.816921  1
  P  P17  1  0.999266  0.515732  0.183079  1
  P  P18  1  0.499266  0.015732  0.316921  1
  P  P19  1  0.500734  0.515732  0.683079  1
  P  P20  1  0.828805  0.764839  0.500206  1
  P  P21  1  0.171195  0.264839  0.499794  1
  P  P22  1  0.671195  0.764839  0.000206  1
  P  P23  1  0.328805  0.264839  0.999794  1
  O  O24  1  0.541870  0.630726  0.756313  1
  O  O25  1  0.312231  0.244197  0.595720  1
  O  O26  1  0.812231  0.744197  0.904280  1
  O  O27  1  0.187769  0.244197  0.095720  1
  O  O28  1  0.691460  0.782695  0.598202  1
  O  O29  1  0.308540  0.282695  0.401798  1
  O  O30  1  0.808540  0.782695  0.098202  1
  O  O31  1  0.191460  0.282695  0.901798  1
  O  O32  1  0.951760  0.902727  0.743127  1
  O  O33  1  0.048240  0.402727  0.256873  1
  O  O34  1  0.548240  0.902727  0.243127  1
  O  O35  1  0.451760  0.402727  0.756873  1
  O  O36  1  0.041870  0.130726  0.743687  1
  O  O37  1  0.958130  0.630726  0.256313  1
  O  O38  1  0.458130  0.130726  0.243687  1
  O  O39  1  0.687769  0.744197  0.404280  1
  O  O40  1  0.191948  0.987160  0.886425  1
  O  O41  1  0.808052  0.487160  0.113575  1
  O  O42  1  0.308052  0.987160  0.386425  1
  O  O43  1  0.969760  0.884042  0.488608  1
  O  O44  1  0.808512  0.045132  0.886624  1
  O  O45  1  0.191488  0.545132  0.113376  1
  O  O46  1  0.691488  0.045132  0.386624  1
  O  O47  1  0.308512  0.545132  0.613376  1
  O  O48  1  0.483860  0.152690  0.985510  1
  O  O49  1  0.516140  0.652690  0.014490  1
  O  O50  1  0.016140  0.152690  0.485510  1
  O  O51  1  0.983860  0.652690  0.514490  1
  O  O52  1  0.469760  0.384042  0.011392  1
  O  O53  1  0.530240  0.884042  0.988608  1
  O  O54  1  0.030240  0.384042  0.511392  1
  O  O55  1  0.691948  0.487160  0.613575  1
  F  F56  1  0.482145  0.142974  0.772525  1
  F  F57  1  0.517855  0.642974  0.227475  1
  F  F58  1  0.017855  0.142974  0.272525  1
  F  F59  1  0.982145  0.642974  0.727475  1
  F  F60  1  0.025825  0.392437  0.729192  1
  F  F61  1  0.974175  0.892437  0.270808  1
  F  F62  1  0.474175  0.392437  0.229192  1
  F  F63  1  0.525825  0.892437  0.770808  1
