# generated using pymatgen
data_K3Pr
_symmetry_space_group_name_H-M   'P 1'
_cell_length_a   8.68353212
_cell_length_b   8.68353212
_cell_length_c   7.17673026
_cell_angle_alpha   90.00000000
_cell_angle_beta   90.00000000
_cell_angle_gamma   120.00000000
_symmetry_Int_Tables_number   1
_chemical_formula_structural   K3Pr
_chemical_formula_sum   'K6 Pr2'
_cell_volume   468.65158020
_cell_formula_units_Z   2
loop_
 _symmetry_equiv_pos_site_id
 _symmetry_equiv_pos_as_xyz
  1  'x, y, z'
loop_
 _atom_site_type_symbol
 _atom_site_label
 _atom_site_symmetry_multiplicity
 _atom_site_fract_x
 _atom_site_fract_y
 _atom_site_fract_z
 _atom_site_occupancy
  K  K0  1  0.170814  0.341629  0.250000  1
  K  K1  1  0.658371  0.829186  0.250000  1
  K  K2  1  0.170814  0.829186  0.250000  1
  K  K3  1  0.829186  0.658371  0.750000  1
  K  K4  1  0.341629  0.170814  0.750000  1
  K  K5  1  0.829186  0.170814  0.750000  1
  Pr  Pr6  1  0.333333  0.666667  0.750000  1
  Pr  Pr7  1  0.666667  0.333333  0.250000  1
