# generated using pymatgen
data_Ba3NaIrO6
_symmetry_space_group_name_H-M   'P 1'
_cell_length_a   7.15828490
_cell_length_b   7.15828490
_cell_length_c   7.15828490
_cell_angle_alpha   91.48784690
_cell_angle_beta   91.48784690
_cell_angle_gamma   91.48784690
_symmetry_Int_Tables_number   1
_chemical_formula_structural   Ba3NaIrO6
_chemical_formula_sum   'Ba6 Na2 Ir2 O12'
_cell_volume   366.42043661
_cell_formula_units_Z   2
loop_
 _symmetry_equiv_pos_site_id
 _symmetry_equiv_pos_as_xyz
  1  'x, y, z'
loop_
 _atom_site_type_symbol
 _atom_site_label
 _atom_site_symmetry_multiplicity
 _atom_site_fract_x
 _atom_site_fract_y
 _atom_site_fract_z
 _atom_site_occupancy
  Ba  Ba0  1  0.106185  0.750000  0.393815  1
  Ba  Ba1  1  0.393815  0.106185  0.750000  1
  Ba  Ba2  1  0.750000  0.393815  0.106185  1
  Ba  Ba3  1  0.893815  0.250000  0.606185  1
  Ba  Ba4  1  0.606185  0.893815  0.250000  1
  Ba  Ba5  1  0.250000  0.606185  0.893815  1
  Na  Na6  1  0.250000  0.250000  0.250000  1
  Na  Na7  1  0.750000  0.750000  0.750000  1
  Ir  Ir8  1  0.000000  0.000000  0.000000  1
  Ir  Ir9  1  0.500000  0.500000  0.500000  1
  O  O10  1  0.581787  0.448767  0.766393  1
  O  O11  1  0.766393  0.581787  0.448767  1
  O  O12  1  0.448767  0.766393  0.581787  1
  O  O13  1  0.733607  0.051233  0.918213  1
  O  O14  1  0.918213  0.733607  0.051233  1
  O  O15  1  0.051233  0.918213  0.733607  1
  O  O16  1  0.418213  0.551233  0.233607  1
  O  O17  1  0.233607  0.418213  0.551233  1
  O  O18  1  0.551233  0.233607  0.418213  1
  O  O19  1  0.266393  0.948767  0.081787  1
  O  O20  1  0.948767  0.081787  0.266393  1
  O  O21  1  0.081787  0.266393  0.948767  1
