# generated using pymatgen
data_PrSi
_symmetry_space_group_name_H-M   'P 1'
_cell_length_a   3.96831952
_cell_length_b   5.97202157
_cell_length_c   8.33957178
_cell_angle_alpha   90.00000000
_cell_angle_beta   90.00000000
_cell_angle_gamma   90.00000000
_symmetry_Int_Tables_number   1
_chemical_formula_structural   PrSi
_chemical_formula_sum   'Pr4 Si4'
_cell_volume   197.63859234
_cell_formula_units_Z   4
loop_
 _symmetry_equiv_pos_site_id
 _symmetry_equiv_pos_as_xyz
  1  'x, y, z'
loop_
 _atom_site_type_symbol
 _atom_site_label
 _atom_site_symmetry_multiplicity
 _atom_site_fract_x
 _atom_site_fract_y
 _atom_site_fract_z
 _atom_site_occupancy
  Pr  Pr0  1  0.250000  0.386229  0.679739  1
  Pr  Pr1  1  0.750000  0.613771  0.320261  1
  Pr  Pr2  1  0.750000  0.886229  0.820261  1
  Pr  Pr3  1  0.250000  0.113771  0.179739  1
  Si  Si4  1  0.250000  0.879579  0.534763  1
  Si  Si5  1  0.750000  0.120421  0.465237  1
  Si  Si6  1  0.750000  0.379579  0.965237  1
  Si  Si7  1  0.250000  0.620421  0.034763  1
