# generated using pymatgen
data_SmNiB4
_symmetry_space_group_name_H-M   'P 1'
_cell_length_a   6.89494119
_cell_length_b   6.89494119
_cell_length_c   6.89494119
_cell_angle_alpha   112.86796276
_cell_angle_beta   112.86796276
_cell_angle_gamma   102.87250906
_symmetry_Int_Tables_number   1
_chemical_formula_structural   SmNiB4
_chemical_formula_sum   'Sm4 Ni4 B16'
_cell_volume   249.86026268
_cell_formula_units_Z   4
loop_
 _symmetry_equiv_pos_site_id
 _symmetry_equiv_pos_as_xyz
  1  'x, y, z'
loop_
 _atom_site_type_symbol
 _atom_site_label
 _atom_site_symmetry_multiplicity
 _atom_site_fract_x
 _atom_site_fract_y
 _atom_site_fract_z
 _atom_site_occupancy
  Sm  Sm0  1  0.750000  0.250000  0.500000  1
  Sm  Sm1  1  0.250000  0.750000  0.500000  1
  Sm  Sm2  1  0.204413  0.204413  0.000000  1
  Sm  Sm3  1  0.795587  0.795587  0.000000  1
  Ni  Ni4  1  0.500000  0.271868  0.771868  1
  Ni  Ni5  1  0.500000  0.728132  0.228132  1
  Ni  Ni6  1  0.728132  0.500000  0.228132  1
  Ni  Ni7  1  0.271868  0.500000  0.771868  1
  B  B8  1  0.417655  0.417655  0.531069  1
  B  B9  1  0.886586  0.886586  0.468931  1
  B  B10  1  0.582345  0.113414  0.000000  1
  B  B11  1  0.113414  0.582345  0.000000  1
  B  B12  1  0.582345  0.582345  0.468931  1
  B  B13  1  0.113414  0.113414  0.531069  1
  B  B14  1  0.886586  0.417655  0.000000  1
  B  B15  1  0.417655  0.886586  0.000000  1
  B  B16  1  0.112046  0.275825  0.387872  1
  B  B17  1  0.887954  0.724175  0.612128  1
  B  B18  1  0.887954  0.275825  0.163779  1
  B  B19  1  0.112046  0.724175  0.836221  1
  B  B20  1  0.724175  0.887954  0.612128  1
  B  B21  1  0.275825  0.112046  0.387872  1
  B  B22  1  0.724175  0.112046  0.836221  1
  B  B23  1  0.275825  0.887954  0.163779  1
