# generated using pymatgen
data_Nb2AsC
_symmetry_space_group_name_H-M   'P 1'
_cell_length_a   3.34290494
_cell_length_b   3.34290494
_cell_length_c   12.06705433
_cell_angle_alpha   90.00000000
_cell_angle_beta   90.00000000
_cell_angle_gamma   120.00000000
_symmetry_Int_Tables_number   1
_chemical_formula_structural   Nb2AsC
_chemical_formula_sum   'Nb4 As2 C2'
_cell_volume   116.78308773
_cell_formula_units_Z   2
loop_
 _symmetry_equiv_pos_site_id
 _symmetry_equiv_pos_as_xyz
  1  'x, y, z'
loop_
 _atom_site_type_symbol
 _atom_site_label
 _atom_site_symmetry_multiplicity
 _atom_site_fract_x
 _atom_site_fract_y
 _atom_site_fract_z
 _atom_site_occupancy
  Nb  Nb0  1  0.333333  0.666667  0.405694  1
  Nb  Nb1  1  0.666667  0.333333  0.905694  1
  Nb  Nb2  1  0.666667  0.333333  0.594306  1
  Nb  Nb3  1  0.333333  0.666667  0.094306  1
  As  As4  1  0.666667  0.333333  0.250000  1
  As  As5  1  0.333333  0.666667  0.750000  1
  C  C6  1  0.000000  0.000000  0.500000  1
  C  C7  1  0.000000  0.000000  0.000000  1
