# generated using pymatgen
data_LiNdSn2
_symmetry_space_group_name_H-M   'P 1'
_cell_length_a   9.84641400
_cell_length_b   9.84641400
_cell_length_c   4.55409918
_cell_angle_alpha   90.00000000
_cell_angle_beta   90.00000000
_cell_angle_gamma   153.52008882
_symmetry_Int_Tables_number   1
_chemical_formula_structural   LiNdSn2
_chemical_formula_sum   'Li2 Nd2 Sn4'
_cell_volume   196.87046387
_cell_formula_units_Z   2
loop_
 _symmetry_equiv_pos_site_id
 _symmetry_equiv_pos_as_xyz
  1  'x, y, z'
loop_
 _atom_site_type_symbol
 _atom_site_label
 _atom_site_symmetry_multiplicity
 _atom_site_fract_x
 _atom_site_fract_y
 _atom_site_fract_z
 _atom_site_occupancy
  Li  Li0  1  0.675822  0.324178  0.250000  1
  Li  Li1  1  0.324178  0.675822  0.750000  1
  Nd  Nd2  1  0.893629  0.106371  0.250000  1
  Nd  Nd3  1  0.106371  0.893629  0.750000  1
  Sn  Sn4  1  0.250484  0.749516  0.250000  1
  Sn  Sn5  1  0.749516  0.250484  0.750000  1
  Sn  Sn6  1  0.543879  0.456121  0.250000  1
  Sn  Sn7  1  0.456121  0.543879  0.750000  1
