# generated using pymatgen
data_LiZn3
_symmetry_space_group_name_H-M   'P 1'
_cell_length_a   5.52500079
_cell_length_b   5.52500079
_cell_length_c   4.43510230
_cell_angle_alpha   90.00000000
_cell_angle_beta   90.00000000
_cell_angle_gamma   120.00000000
_symmetry_Int_Tables_number   1
_chemical_formula_structural   LiZn3
_chemical_formula_sum   'Li2 Zn6'
_cell_volume   117.24625039
_cell_formula_units_Z   2
loop_
 _symmetry_equiv_pos_site_id
 _symmetry_equiv_pos_as_xyz
  1  'x, y, z'
loop_
 _atom_site_type_symbol
 _atom_site_label
 _atom_site_symmetry_multiplicity
 _atom_site_fract_x
 _atom_site_fract_y
 _atom_site_fract_z
 _atom_site_occupancy
  Li  Li0  1  0.666667  0.333333  0.250000  1
  Li  Li1  1  0.333333  0.666667  0.750000  1
  Zn  Zn2  1  0.664400  0.832200  0.250000  1
  Zn  Zn3  1  0.167800  0.335600  0.250000  1
  Zn  Zn4  1  0.832200  0.167800  0.750000  1
  Zn  Zn5  1  0.335600  0.167800  0.750000  1
  Zn  Zn6  1  0.832200  0.664400  0.750000  1
  Zn  Zn7  1  0.167800  0.832200  0.250000  1
