# generated using pymatgen
data_NpPa3
_symmetry_space_group_name_H-M   'P 1'
_cell_length_a   5.82180239
_cell_length_b   5.82180239
_cell_length_c   5.82180239
_cell_angle_alpha   136.38144377
_cell_angle_beta   136.38144377
_cell_angle_gamma   63.39116529
_symmetry_Int_Tables_number   1
_chemical_formula_structural   NpPa3
_chemical_formula_sum   'Np1 Pa3'
_cell_volume   92.69287464
_cell_formula_units_Z   1
loop_
 _symmetry_equiv_pos_site_id
 _symmetry_equiv_pos_as_xyz
  1  'x, y, z'
loop_
 _atom_site_type_symbol
 _atom_site_label
 _atom_site_symmetry_multiplicity
 _atom_site_fract_x
 _atom_site_fract_y
 _atom_site_fract_z
 _atom_site_occupancy
  Np  Np0  1  0.000000  0.000000  0.000000  1
  Pa  Pa1  1  0.250000  0.750000  0.500000  1
  Pa  Pa2  1  0.750000  0.250000  0.500000  1
  Pa  Pa3  1  0.500000  0.500000  0.000000  1
