# generated using pymatgen
data_Sm(CuO2)2
_symmetry_space_group_name_H-M   'P 1'
_cell_length_a   6.35125554
_cell_length_b   6.35125554
_cell_length_c   6.35125554
_cell_angle_alpha   125.78840793
_cell_angle_beta   125.78840793
_cell_angle_gamma   80.23618477
_symmetry_Int_Tables_number   1
_chemical_formula_structural   Sm(CuO2)2
_chemical_formula_sum   'Sm2 Cu4 O8'
_cell_volume   162.69496833
_cell_formula_units_Z   2
loop_
 _symmetry_equiv_pos_site_id
 _symmetry_equiv_pos_as_xyz
  1  'x, y, z'
loop_
 _atom_site_type_symbol
 _atom_site_label
 _atom_site_symmetry_multiplicity
 _atom_site_fract_x
 _atom_site_fract_y
 _atom_site_fract_z
 _atom_site_occupancy
  Sm  Sm0  1  0.000000  0.000000  0.000000  1
  Sm  Sm1  1  0.750000  0.250000  0.500000  1
  Cu  Cu2  1  0.875000  0.625000  0.250000  1
  Cu  Cu3  1  0.375000  0.625000  0.750000  1
  Cu  Cu4  1  0.375000  0.125000  0.750000  1
  Cu  Cu5  1  0.375000  0.625000  0.250000  1
  O  O6  1  0.405437  0.837032  0.140040  1
  O  O7  1  0.696992  0.265397  0.859960  1
  O  O8  1  0.344563  0.412968  0.359960  1
  O  O9  1  0.053008  0.984603  0.640040  1
  O  O10  1  0.015397  0.655437  0.068406  1
  O  O11  1  0.587032  0.946992  0.931594  1
  O  O12  1  0.162968  0.303008  0.568406  1
  O  O13  1  0.734603  0.594563  0.431594  1
