# generated using pymatgen
data_Ho3Tm
_symmetry_space_group_name_H-M   'P 1'
_cell_length_a   7.18902026
_cell_length_b   7.18902026
_cell_length_c   5.57878732
_cell_angle_alpha   90.00000000
_cell_angle_beta   90.00000000
_cell_angle_gamma   120.00000000
_symmetry_Int_Tables_number   1
_chemical_formula_structural   Ho3Tm
_chemical_formula_sum   'Ho6 Tm2'
_cell_volume   249.69500343
_cell_formula_units_Z   2
loop_
 _symmetry_equiv_pos_site_id
 _symmetry_equiv_pos_as_xyz
  1  'x, y, z'
loop_
 _atom_site_type_symbol
 _atom_site_label
 _atom_site_symmetry_multiplicity
 _atom_site_fract_x
 _atom_site_fract_y
 _atom_site_fract_z
 _atom_site_occupancy
  Ho  Ho0  1  0.166771  0.333542  0.250000  1
  Ho  Ho1  1  0.666458  0.833229  0.250000  1
  Ho  Ho2  1  0.166771  0.833229  0.250000  1
  Ho  Ho3  1  0.833229  0.666458  0.750000  1
  Ho  Ho4  1  0.333542  0.166771  0.750000  1
  Ho  Ho5  1  0.833229  0.166771  0.750000  1
  Tm  Tm6  1  0.333333  0.666667  0.750000  1
  Tm  Tm7  1  0.666667  0.333333  0.250000  1
