# generated using pymatgen
data_NaCrH8(NF3)2
_symmetry_space_group_name_H-M   'P 1'
_cell_length_a   6.10671548
_cell_length_b   6.10671548
_cell_length_c   6.10671548
_cell_angle_alpha   60.00000000
_cell_angle_beta   60.00000000
_cell_angle_gamma   60.00000000
_symmetry_Int_Tables_number   1
_chemical_formula_structural   NaCrH8(NF3)2
_chemical_formula_sum   'Na1 Cr1 H8 N2 F6'
_cell_volume   161.03047037
_cell_formula_units_Z   1
loop_
 _symmetry_equiv_pos_site_id
 _symmetry_equiv_pos_as_xyz
  1  'x, y, z'
loop_
 _atom_site_type_symbol
 _atom_site_label
 _atom_site_symmetry_multiplicity
 _atom_site_fract_x
 _atom_site_fract_y
 _atom_site_fract_z
 _atom_site_occupancy
  Na  Na0  1  0.500000  0.500000  0.500000  1
  Cr  Cr1  1  0.000000  0.000000  0.000000  1
  H  H2  1  0.818631  0.818631  0.544108  1
  H  H3  1  0.544108  0.818631  0.818631  1
  H  H4  1  0.818631  0.544108  0.818631  1
  H  H5  1  0.818631  0.818631  0.818631  1
  H  H6  1  0.181369  0.181369  0.181369  1
  H  H7  1  0.181369  0.181369  0.455892  1
  H  H8  1  0.181369  0.455892  0.181369  1
  H  H9  1  0.455892  0.181369  0.181369  1
  N  N10  1  0.750000  0.750000  0.750000  1
  N  N11  1  0.250000  0.250000  0.250000  1
  F  F12  1  0.774465  0.225535  0.225535  1
  F  F13  1  0.225535  0.774465  0.225535  1
  F  F14  1  0.225535  0.225535  0.774465  1
  F  F15  1  0.774465  0.774465  0.225535  1
  F  F16  1  0.225535  0.774465  0.774465  1
  F  F17  1  0.774465  0.225535  0.774465  1
