# generated using pymatgen
data_K2H4Pt
_symmetry_space_group_name_H-M   'P 1'
_cell_length_a   5.63688420
_cell_length_b   5.63688420
_cell_length_c   8.20371849
_cell_angle_alpha   90.00000000
_cell_angle_beta   90.00000000
_cell_angle_gamma   90.00000000
_symmetry_Int_Tables_number   1
_chemical_formula_structural   K2H4Pt
_chemical_formula_sum   'K4 H8 Pt2'
_cell_volume   260.66875360
_cell_formula_units_Z   2
loop_
 _symmetry_equiv_pos_site_id
 _symmetry_equiv_pos_as_xyz
  1  'x, y, z'
loop_
 _atom_site_type_symbol
 _atom_site_label
 _atom_site_symmetry_multiplicity
 _atom_site_fract_x
 _atom_site_fract_y
 _atom_site_fract_z
 _atom_site_occupancy
  K  K0  1  0.500000  0.000000  0.250000  1
  K  K1  1  0.000000  0.500000  0.250000  1
  K  K2  1  0.500000  0.000000  0.750000  1
  K  K3  1  0.000000  0.500000  0.750000  1
  H  H4  1  0.208851  0.208851  0.000000  1
  H  H5  1  0.791149  0.791149  0.000000  1
  H  H6  1  0.000000  0.000000  0.203084  1
  H  H7  1  0.500000  0.500000  0.296916  1
  H  H8  1  0.708851  0.291149  0.500000  1
  H  H9  1  0.291149  0.708851  0.500000  1
  H  H10  1  0.500000  0.500000  0.703084  1
  H  H11  1  0.000000  0.000000  0.796916  1
  Pt  Pt12  1  0.000000  0.000000  0.000000  1
  Pt  Pt13  1  0.500000  0.500000  0.500000  1
