# generated using pymatgen
data_SiSb3
_symmetry_space_group_name_H-M   'P 1'
_cell_length_a   6.44969471
_cell_length_b   6.44969471
_cell_length_c   5.56222856
_cell_angle_alpha   90.00000000
_cell_angle_beta   90.00000000
_cell_angle_gamma   120.00000000
_symmetry_Int_Tables_number   1
_chemical_formula_structural   SiSb3
_chemical_formula_sum   'Si2 Sb6'
_cell_volume   200.38157156
_cell_formula_units_Z   2
loop_
 _symmetry_equiv_pos_site_id
 _symmetry_equiv_pos_as_xyz
  1  'x, y, z'
loop_
 _atom_site_type_symbol
 _atom_site_label
 _atom_site_symmetry_multiplicity
 _atom_site_fract_x
 _atom_site_fract_y
 _atom_site_fract_z
 _atom_site_occupancy
  Si  Si0  1  0.333333  0.666667  0.750000  1
  Si  Si1  1  0.666667  0.333333  0.250000  1
  Sb  Sb2  1  0.174630  0.349260  0.250000  1
  Sb  Sb3  1  0.650740  0.825370  0.250000  1
  Sb  Sb4  1  0.174630  0.825370  0.250000  1
  Sb  Sb5  1  0.825370  0.650740  0.750000  1
  Sb  Sb6  1  0.349260  0.174630  0.750000  1
  Sb  Sb7  1  0.825370  0.174630  0.750000  1
