# generated using pymatgen
data_Er2(SO4)3
_symmetry_space_group_name_H-M   'P 1'
_cell_length_a   9.23573258
_cell_length_b   9.32486956
_cell_length_c   12.89877618
_cell_angle_alpha   90.00000000
_cell_angle_beta   90.00000000
_cell_angle_gamma   90.00000000
_symmetry_Int_Tables_number   1
_chemical_formula_structural   Er2(SO4)3
_chemical_formula_sum   'Er8 S12 O48'
_cell_volume   1110.86842281
_cell_formula_units_Z   4
loop_
 _symmetry_equiv_pos_site_id
 _symmetry_equiv_pos_as_xyz
  1  'x, y, z'
loop_
 _atom_site_type_symbol
 _atom_site_label
 _atom_site_symmetry_multiplicity
 _atom_site_fract_x
 _atom_site_fract_y
 _atom_site_fract_z
 _atom_site_occupancy
  Er  Er0  1  0.750513  0.464062  0.383458  1
  Er  Er1  1  0.750513  0.035938  0.616542  1
  Er  Er2  1  0.749487  0.964062  0.116542  1
  Er  Er3  1  0.749487  0.535938  0.883458  1
  Er  Er4  1  0.249487  0.535938  0.616542  1
  Er  Er5  1  0.249487  0.964062  0.383458  1
  Er  Er6  1  0.250513  0.035938  0.883458  1
  Er  Er7  1  0.250513  0.464062  0.116542  1
  S  S8  1  0.607934  0.389740  0.645565  1
  S  S9  1  0.607934  0.110260  0.354435  1
  S  S10  1  0.892066  0.889740  0.854435  1
  S  S11  1  0.892066  0.610260  0.145565  1
  S  S12  1  0.392066  0.610260  0.354435  1
  S  S13  1  0.392066  0.889740  0.645565  1
  S  S14  1  0.107934  0.110260  0.145565  1
  S  S15  1  0.107934  0.389740  0.854435  1
  S  S16  1  0.033774  0.250000  0.500000  1
  S  S17  1  0.466226  0.750000  0.000000  1
  S  S18  1  0.966226  0.750000  0.500000  1
  S  S19  1  0.533774  0.250000  0.000000  1
  O  O20  1  0.126740  0.349437  0.559408  1
  O  O21  1  0.126740  0.150563  0.440592  1
  O  O22  1  0.373260  0.849437  0.940592  1
  O  O23  1  0.373260  0.650563  0.059408  1
  O  O24  1  0.873260  0.650563  0.440592  1
  O  O25  1  0.873260  0.849437  0.559408  1
  O  O26  1  0.626740  0.150563  0.059408  1
  O  O27  1  0.626740  0.349437  0.940592  1
  O  O28  1  0.941904  0.331082  0.426285  1
  O  O29  1  0.941904  0.168918  0.573715  1
  O  O30  1  0.558096  0.831082  0.073715  1
  O  O31  1  0.558096  0.668918  0.926285  1
  O  O32  1  0.058096  0.668918  0.573715  1
  O  O33  1  0.058096  0.831082  0.426285  1
  O  O34  1  0.441904  0.168918  0.926285  1
  O  O35  1  0.441904  0.331082  0.073715  1
  O  O36  1  0.333930  0.571212  0.457553  1
  O  O37  1  0.666070  0.428788  0.542447  1
  O  O38  1  0.833930  0.928788  0.957553  1
  O  O39  1  0.833930  0.571212  0.042447  1
  O  O40  1  0.357810  0.762230  0.331159  1
  O  O41  1  0.357810  0.737770  0.668841  1
  O  O42  1  0.142190  0.262230  0.168841  1
  O  O43  1  0.142190  0.237770  0.831159  1
  O  O44  1  0.642190  0.237770  0.668841  1
  O  O45  1  0.642190  0.262230  0.331159  1
  O  O46  1  0.857810  0.737770  0.831159  1
  O  O47  1  0.857810  0.762230  0.168841  1
  O  O48  1  0.948773  0.408713  0.853279  1
  O  O49  1  0.948773  0.091287  0.146721  1
  O  O50  1  0.551227  0.908713  0.646721  1
  O  O51  1  0.551227  0.591287  0.353279  1
  O  O52  1  0.051227  0.591287  0.146721  1
  O  O53  1  0.051227  0.908713  0.853279  1
  O  O54  1  0.448773  0.091287  0.353279  1
  O  O55  1  0.448773  0.408713  0.646721  1
  O  O56  1  0.174238  0.484192  0.775154  1
  O  O57  1  0.174238  0.015808  0.224846  1
  O  O58  1  0.325762  0.984192  0.724846  1
  O  O59  1  0.325762  0.515808  0.275154  1
  O  O60  1  0.825762  0.515808  0.224846  1
  O  O61  1  0.825762  0.984192  0.775154  1
  O  O62  1  0.674238  0.015808  0.275154  1
  O  O63  1  0.674238  0.484192  0.724846  1
  O  O64  1  0.166070  0.428788  0.957553  1
  O  O65  1  0.166070  0.071212  0.042447  1
  O  O66  1  0.333930  0.928788  0.542447  1
  O  O67  1  0.666070  0.071212  0.457553  1
