# generated using pymatgen
data_K3TlAu5
_symmetry_space_group_name_H-M   'P 1'
_cell_length_a   11.32900637
_cell_length_b   11.32900637
_cell_length_c   11.32900637
_cell_angle_alpha   150.45982653
_cell_angle_beta   135.47958739
_cell_angle_gamma   54.33740631
_symmetry_Int_Tables_number   1
_chemical_formula_structural   K3TlAu5
_chemical_formula_sum   'K6 Tl2 Au10'
_cell_volume   499.72082861
_cell_formula_units_Z   2
loop_
 _symmetry_equiv_pos_site_id
 _symmetry_equiv_pos_as_xyz
  1  'x, y, z'
loop_
 _atom_site_type_symbol
 _atom_site_label
 _atom_site_symmetry_multiplicity
 _atom_site_fract_x
 _atom_site_fract_y
 _atom_site_fract_z
 _atom_site_occupancy
  K  K0  1  0.705332  0.586383  0.618949  1
  K  K1  1  0.967433  0.086383  0.381051  1
  K  K2  1  0.369143  0.250000  0.619143  1
  K  K3  1  0.630857  0.750000  0.380857  1
  K  K4  1  0.032567  0.913617  0.618949  1
  K  K5  1  0.294668  0.413617  0.381051  1
  Tl  Tl6  1  0.084094  0.750000  0.834094  1
  Tl  Tl7  1  0.915906  0.250000  0.165906  1
  Au  Au8  1  0.000000  0.500000  1.000000  1
  Au  Au9  1  0.500000  0.000000  0.000000  1
  Au  Au10  1  0.310291  0.810291  0.500000  1
  Au  Au11  1  0.310291  0.310291  0.000000  1
  Au  Au12  1  0.186508  0.643815  0.042693  1
  Au  Au13  1  0.601122  0.143815  0.957307  1
  Au  Au14  1  0.398878  0.856185  0.042693  1
  Au  Au15  1  0.813492  0.356185  0.957307  1
  Au  Au16  1  0.689709  0.689709  0.000000  1
  Au  Au17  1  0.689709  0.189709  0.500000  1
