# generated using pymatgen
data_Sr2ZnCu2(SO)2
_symmetry_space_group_name_H-M   'P 1'
_cell_length_a   9.36401819
_cell_length_b   9.36401819
_cell_length_c   9.36401819
_cell_angle_alpha   155.12921047
_cell_angle_beta   155.12921047
_cell_angle_gamma   35.46035854
_symmetry_Int_Tables_number   1
_chemical_formula_structural   Sr2ZnCu2(SO)2
_chemical_formula_sum   'Sr2 Zn1 Cu2 S2 O2'
_cell_volume   145.06283679
_cell_formula_units_Z   1
loop_
 _symmetry_equiv_pos_site_id
 _symmetry_equiv_pos_as_xyz
  1  'x, y, z'
loop_
 _atom_site_type_symbol
 _atom_site_label
 _atom_site_symmetry_multiplicity
 _atom_site_fract_x
 _atom_site_fract_y
 _atom_site_fract_z
 _atom_site_occupancy
  Sr  Sr0  1  0.592390  0.592390  0.000000  1
  Sr  Sr1  1  0.407610  0.407610  0.000000  1
  Zn  Zn2  1  0.000000  0.000000  0.000000  1
  Cu  Cu3  1  0.250000  0.750000  0.500000  1
  Cu  Cu4  1  0.750000  0.250000  0.500000  1
  S  S5  1  0.826046  0.826046  0.000000  1
  S  S6  1  0.173954  0.173954  0.000000  1
  O  O7  1  0.000000  0.500000  0.500000  1
  O  O8  1  0.500000  1.000000  0.500000  1
