# generated using pymatgen
data_KCa9Mg(PO4)7
_symmetry_space_group_name_H-M   'P 1'
_cell_length_a   13.83472137
_cell_length_b   13.83472137
_cell_length_c   13.83472137
_cell_angle_alpha   44.64804279
_cell_angle_beta   44.64804279
_cell_angle_gamma   44.64804279
_symmetry_Int_Tables_number   1
_chemical_formula_structural   KCa9Mg(PO4)7
_chemical_formula_sum   'K2 Ca18 Mg2 P14 O56'
_cell_volume   1189.37077013
_cell_formula_units_Z   2
loop_
 _symmetry_equiv_pos_site_id
 _symmetry_equiv_pos_as_xyz
  1  'x, y, z'
loop_
 _atom_site_type_symbol
 _atom_site_label
 _atom_site_symmetry_multiplicity
 _atom_site_fract_x
 _atom_site_fract_y
 _atom_site_fract_z
 _atom_site_occupancy
  K  K0  1  0.316690  0.316690  0.316690  1
  K  K1  1  0.816690  0.816690  0.816690  1
  Ca  Ca2  1  0.438848  0.029132  0.056685  1
  Ca  Ca3  1  0.029132  0.056685  0.438848  1
  Ca  Ca4  1  0.056685  0.438848  0.029132  1
  Ca  Ca5  1  0.938848  0.556685  0.529132  1
  Ca  Ca6  1  0.556685  0.529132  0.938848  1
  Ca  Ca7  1  0.529132  0.938848  0.556685  1
  Ca  Ca8  1  0.092615  0.055170  0.656139  1
  Ca  Ca9  1  0.055169  0.656139  0.092615  1
  Ca  Ca10  1  0.656139  0.092615  0.055169  1
  Ca  Ca11  1  0.592615  0.156139  0.555170  1
  Ca  Ca12  1  0.156139  0.555170  0.592615  1
  Ca  Ca13  1  0.555170  0.592615  0.156139  1
  Ca  Ca14  1  0.926169  0.937337  0.340441  1
  Ca  Ca15  1  0.937337  0.340441  0.926169  1
  Ca  Ca16  1  0.340441  0.926169  0.937337  1
  Ca  Ca17  1  0.426169  0.840441  0.437337  1
  Ca  Ca18  1  0.840441  0.437337  0.426169  1
  Ca  Ca19  1  0.437337  0.426169  0.840441  1
  Mg  Mg20  1  0.500094  0.500094  0.500094  1
  Mg  Mg21  1  0.000094  0.000094  0.000094  1
  P  P22  1  0.185187  0.682698  0.226695  1
  P  P23  1  0.820767  0.312353  0.774047  1
  P  P24  1  0.312353  0.774047  0.820767  1
  P  P25  1  0.774047  0.820767  0.312353  1
  P  P26  1  0.226695  0.185187  0.682698  1
  P  P27  1  0.812353  0.320767  0.274047  1
  P  P28  1  0.682698  0.226695  0.185187  1
  P  P29  1  0.274047  0.812353  0.320767  1
  P  P30  1  0.182698  0.685187  0.726695  1
  P  P31  1  0.685187  0.726695  0.182698  1
  P  P32  1  0.232827  0.232827  0.232827  1
  P  P33  1  0.732827  0.732827  0.732827  1
  P  P34  1  0.320767  0.274047  0.812353  1
  P  P35  1  0.726695  0.182698  0.685187  1
  O  O36  1  0.330238  0.310380  0.887828  1
  O  O37  1  0.310380  0.887828  0.330238  1
  O  O38  1  0.887828  0.330238  0.310380  1
  O  O39  1  0.830238  0.387828  0.810380  1
  O  O40  1  0.387828  0.810380  0.830238  1
  O  O41  1  0.810380  0.830238  0.387828  1
  O  O42  1  0.390069  0.360620  0.636235  1
  O  O43  1  0.360620  0.636235  0.390069  1
  O  O44  1  0.636236  0.390069  0.360620  1
  O  O45  1  0.890069  0.136236  0.860620  1
  O  O46  1  0.136235  0.860620  0.890069  1
  O  O47  1  0.860620  0.890069  0.136235  1
  O  O48  1  0.151993  0.327291  0.867219  1
  O  O49  1  0.327291  0.867219  0.151993  1
  O  O50  1  0.867219  0.151993  0.327291  1
  O  O51  1  0.651993  0.367219  0.827291  1
  O  O52  1  0.367219  0.827291  0.651993  1
  O  O53  1  0.827291  0.651993  0.367219  1
  O  O54  1  0.413731  0.101011  0.855836  1
  O  O55  1  0.101011  0.855836  0.413731  1
  O  O56  1  0.855836  0.413731  0.101011  1
  O  O57  1  0.913731  0.355836  0.601011  1
  O  O58  1  0.156006  0.359805  0.617097  1
  O  O59  1  0.355836  0.601011  0.913731  1
  O  O60  1  0.128020  0.122369  0.858072  1
  O  O61  1  0.122369  0.858072  0.128020  1
  O  O62  1  0.858072  0.128020  0.122369  1
  O  O63  1  0.628020  0.358072  0.622369  1
  O  O64  1  0.358072  0.622369  0.628020  1
  O  O65  1  0.622369  0.628020  0.358072  1
  O  O66  1  0.389666  0.108270  0.665346  1
  O  O67  1  0.108270  0.665346  0.389666  1
  O  O68  1  0.665346  0.389666  0.108270  1
  O  O69  1  0.889666  0.165346  0.608270  1
  O  O70  1  0.165346  0.608270  0.889666  1
  O  O71  1  0.608270  0.889666  0.165346  1
  O  O72  1  0.691232  0.691232  0.691232  1
  O  O73  1  0.191232  0.191232  0.191232  1
  O  O74  1  0.890653  0.609911  0.738390  1
  O  O75  1  0.738390  0.890653  0.609911  1
  O  O76  1  0.609911  0.738390  0.890653  1
  O  O77  1  0.238390  0.109911  0.390653  1
  O  O78  1  0.390653  0.238390  0.109911  1
  O  O79  1  0.109911  0.390653  0.238390  1
  O  O80  1  0.632622  0.741232  0.103264  1
  O  O81  1  0.103264  0.632622  0.741232  1
  O  O82  1  0.741232  0.103264  0.632622  1
  O  O83  1  0.603264  0.241232  0.132622  1
  O  O84  1  0.132622  0.603264  0.241232  1
  O  O85  1  0.241232  0.132622  0.603264  1
  O  O86  1  0.859805  0.656006  0.117097  1
  O  O87  1  0.117097  0.859805  0.656006  1
  O  O88  1  0.656006  0.117097  0.859805  1
  O  O89  1  0.617097  0.156006  0.359805  1
  O  O90  1  0.359805  0.617097  0.156006  1
  O  O91  1  0.601011  0.913731  0.355836  1
