# generated using pymatgen
data_Np(SiPd)2
_symmetry_space_group_name_H-M   'P 1'
_cell_length_a   5.91200842
_cell_length_b   5.91200842
_cell_length_c   5.91200842
_cell_angle_alpha   139.54853109
_cell_angle_beta   139.54853109
_cell_angle_gamma   58.53943552
_symmetry_Int_Tables_number   1
_chemical_formula_structural   Np(SiPd)2
_chemical_formula_sum   'Np1 Si2 Pd2'
_cell_volume   86.17733600
_cell_formula_units_Z   1
loop_
 _symmetry_equiv_pos_site_id
 _symmetry_equiv_pos_as_xyz
  1  'x, y, z'
loop_
 _atom_site_type_symbol
 _atom_site_label
 _atom_site_symmetry_multiplicity
 _atom_site_fract_x
 _atom_site_fract_y
 _atom_site_fract_z
 _atom_site_occupancy
  Np  Np0  1  0.000000  0.000000  0.000000  1
  Si  Si1  1  0.612488  0.612488  0.000000  1
  Si  Si2  1  0.387512  0.387512  0.000000  1
  Pd  Pd3  1  0.250000  0.750000  0.500000  1
  Pd  Pd4  1  0.750000  0.250000  0.500000  1
