# generated using pymatgen
data_Ho2Se3
_symmetry_space_group_name_H-M   'P 1'
_cell_length_a   13.51281316
_cell_length_b   12.89799572
_cell_length_c   7.07352894
_cell_angle_alpha   79.32599780
_cell_angle_beta   69.71593079
_cell_angle_gamma   30.95807140
_symmetry_Int_Tables_number   1
_chemical_formula_structural   Ho2Se3
_chemical_formula_sum   'Ho8 Se12'
_cell_volume   578.58652088
_cell_formula_units_Z   4
loop_
 _symmetry_equiv_pos_site_id
 _symmetry_equiv_pos_as_xyz
  1  'x, y, z'
loop_
 _atom_site_type_symbol
 _atom_site_label
 _atom_site_symmetry_multiplicity
 _atom_site_fract_x
 _atom_site_fract_y
 _atom_site_fract_z
 _atom_site_occupancy
  Ho  Ho0  1  0.002750  0.002750  0.497250  1
  Ho  Ho1  1  0.497250  0.497250  0.002750  1
  Ho  Ho2  1  0.247250  0.247250  0.752750  1
  Ho  Ho3  1  0.752750  0.752750  0.247250  1
  Ho  Ho4  1  0.666100  0.666100  0.833900  1
  Ho  Ho5  1  0.833900  0.833900  0.666100  1
  Ho  Ho6  1  0.583900  0.583900  0.416100  1
  Ho  Ho7  1  0.416100  0.416100  0.583900  1
  Se  Se8  1  0.673877  0.164238  0.819630  1
  Se  Se9  1  0.342255  0.819630  0.164238  1
  Se  Se10  1  0.819630  0.342255  0.673877  1
  Se  Se11  1  0.164238  0.673877  0.342255  1
  Se  Se12  1  0.576123  0.085762  0.430370  1
  Se  Se13  1  0.907745  0.430370  0.085762  1
  Se  Se14  1  0.430370  0.907745  0.576123  1
  Se  Se15  1  0.085762  0.576123  0.907745  1
  Se  Se16  1  0.741862  0.258138  0.258138  1
  Se  Se17  1  0.258138  0.741862  0.741862  1
  Se  Se18  1  0.508138  0.991862  0.991862  1
  Se  Se19  1  0.991862  0.508138  0.508138  1
