# generated using pymatgen
data_RbPbCl3
_symmetry_space_group_name_H-M   'P 1'
_cell_length_a   7.54561315
_cell_length_b   7.54561315
_cell_length_c   10.75373674
_cell_angle_alpha   90.00000000
_cell_angle_beta   90.00000000
_cell_angle_gamma   146.61863441
_symmetry_Int_Tables_number   1
_chemical_formula_structural   RbPbCl3
_chemical_formula_sum   'Rb2 Pb2 Cl6'
_cell_volume   336.88084155
_cell_formula_units_Z   2
loop_
 _symmetry_equiv_pos_site_id
 _symmetry_equiv_pos_as_xyz
  1  'x, y, z'
loop_
 _atom_site_type_symbol
 _atom_site_label
 _atom_site_symmetry_multiplicity
 _atom_site_fract_x
 _atom_site_fract_y
 _atom_site_fract_z
 _atom_site_occupancy
  Rb  Rb0  1  0.747808  0.252192  0.750000  1
  Rb  Rb1  1  0.252192  0.747808  0.250000  1
  Pb  Pb2  1  0.000000  0.000000  0.500000  1
  Pb  Pb3  1  0.000000  0.000000  0.000000  1
  Cl  Cl4  1  0.632503  0.367497  0.443931  1
  Cl  Cl5  1  0.367497  0.632503  0.943931  1
  Cl  Cl6  1  0.632503  0.367497  0.056069  1
  Cl  Cl7  1  0.367497  0.632503  0.556069  1
  Cl  Cl8  1  0.074908  0.925092  0.750000  1
  Cl  Cl9  1  0.925092  0.074908  0.250000  1
