# generated using pymatgen
data_La3Ag
_symmetry_space_group_name_H-M   'P 1'
_cell_length_a   7.25625363
_cell_length_b   7.25625363
_cell_length_c   5.43059008
_cell_angle_alpha   90.00000000
_cell_angle_beta   90.00000000
_cell_angle_gamma   120.00000000
_symmetry_Int_Tables_number   1
_chemical_formula_structural   La3Ag
_chemical_formula_sum   'La6 Ag2'
_cell_volume   247.62960344
_cell_formula_units_Z   2
loop_
 _symmetry_equiv_pos_site_id
 _symmetry_equiv_pos_as_xyz
  1  'x, y, z'
loop_
 _atom_site_type_symbol
 _atom_site_label
 _atom_site_symmetry_multiplicity
 _atom_site_fract_x
 _atom_site_fract_y
 _atom_site_fract_z
 _atom_site_occupancy
  La  La0  1  0.176850  0.353700  0.250000  1
  La  La1  1  0.646300  0.823150  0.250000  1
  La  La2  1  0.176850  0.823150  0.250000  1
  La  La3  1  0.823150  0.646300  0.750000  1
  La  La4  1  0.353700  0.176850  0.750000  1
  La  La5  1  0.823150  0.176850  0.750000  1
  Ag  Ag6  1  0.333333  0.666667  0.750000  1
  Ag  Ag7  1  0.666667  0.333333  0.250000  1
