# generated using pymatgen
data_Li3H3N2
_symmetry_space_group_name_H-M   'P 1'
_cell_length_a   3.72946305
_cell_length_b   3.46047893
_cell_length_c   5.14346096
_cell_angle_alpha   90.00000000
_cell_angle_beta   91.82612209
_cell_angle_gamma   90.00000000
_symmetry_Int_Tables_number   1
_chemical_formula_structural   Li3H3N2
_chemical_formula_sum   'Li3 H3 N2'
_cell_volume   66.34639774
_cell_formula_units_Z   1
loop_
 _symmetry_equiv_pos_site_id
 _symmetry_equiv_pos_as_xyz
  1  'x, y, z'
loop_
 _atom_site_type_symbol
 _atom_site_label
 _atom_site_symmetry_multiplicity
 _atom_site_fract_x
 _atom_site_fract_y
 _atom_site_fract_z
 _atom_site_occupancy
  Li  Li0  1  0.458237  0.000000  0.761263  1
  Li  Li1  1  0.962599  0.500000  0.683438  1
  Li  Li2  1  0.608730  0.000000  0.319708  1
  H  H3  1  0.039178  0.229279  0.092874  1
  H  H4  1  0.301423  0.500000  0.367238  1
  H  H5  1  0.039178  0.770721  0.092874  1
  N  N6  1  0.949269  0.000000  0.979692  1
  N  N7  1  0.479386  0.500000  0.526914  1
