# generated using pymatgen
data_Rb(TeMo)3
_symmetry_space_group_name_H-M   'P 1'
_cell_length_a   10.01834719
_cell_length_b   10.01834719
_cell_length_c   4.62852077
_cell_angle_alpha   90.00000000
_cell_angle_beta   90.00000000
_cell_angle_gamma   120.00000000
_symmetry_Int_Tables_number   1
_chemical_formula_structural   Rb(TeMo)3
_chemical_formula_sum   'Rb2 Te6 Mo6'
_cell_volume   402.31386994
_cell_formula_units_Z   2
loop_
 _symmetry_equiv_pos_site_id
 _symmetry_equiv_pos_as_xyz
  1  'x, y, z'
loop_
 _atom_site_type_symbol
 _atom_site_label
 _atom_site_symmetry_multiplicity
 _atom_site_fract_x
 _atom_site_fract_y
 _atom_site_fract_z
 _atom_site_occupancy
  Rb  Rb0  1  0.333333  0.666667  0.250000  1
  Rb  Rb1  1  0.666667  0.333333  0.750000  1
  Te  Te2  1  0.348673  0.049597  0.250000  1
  Te  Te3  1  0.950403  0.299077  0.250000  1
  Te  Te4  1  0.700923  0.651327  0.250000  1
  Te  Te5  1  0.651327  0.950403  0.750000  1
  Te  Te6  1  0.299077  0.348673  0.750000  1
  Te  Te7  1  0.049597  0.700923  0.750000  1
  Mo  Mo8  1  0.836000  0.976342  0.250000  1
  Mo  Mo9  1  0.140342  0.164000  0.250000  1
  Mo  Mo10  1  0.023658  0.859658  0.250000  1
  Mo  Mo11  1  0.164000  0.023658  0.750000  1
  Mo  Mo12  1  0.976342  0.140342  0.750000  1
  Mo  Mo13  1  0.859658  0.836000  0.750000  1
