# generated using pymatgen
data_Ge3B
_symmetry_space_group_name_H-M   'P 1'
_cell_length_a   5.57421784
_cell_length_b   5.57421784
_cell_length_c   4.81073417
_cell_angle_alpha   90.00000000
_cell_angle_beta   90.00000000
_cell_angle_gamma   120.00000000
_symmetry_Int_Tables_number   1
_chemical_formula_structural   Ge3B
_chemical_formula_sum   'Ge6 B2'
_cell_volume   129.45232816
_cell_formula_units_Z   2
loop_
 _symmetry_equiv_pos_site_id
 _symmetry_equiv_pos_as_xyz
  1  'x, y, z'
loop_
 _atom_site_type_symbol
 _atom_site_label
 _atom_site_symmetry_multiplicity
 _atom_site_fract_x
 _atom_site_fract_y
 _atom_site_fract_z
 _atom_site_occupancy
  Ge  Ge0  1  0.172039  0.344078  0.250000  1
  Ge  Ge1  1  0.655922  0.827961  0.250000  1
  Ge  Ge2  1  0.172039  0.827961  0.250000  1
  Ge  Ge3  1  0.827961  0.655922  0.750000  1
  Ge  Ge4  1  0.344078  0.172039  0.750000  1
  Ge  Ge5  1  0.827961  0.172039  0.750000  1
  B  B6  1  0.333333  0.666667  0.750000  1
  B  B7  1  0.666667  0.333333  0.250000  1
