# generated using pymatgen
data_K2NbCuS4
_symmetry_space_group_name_H-M   'P 1'
_cell_length_a   13.50841966
_cell_length_b   12.06708864
_cell_length_c   7.24178145
_cell_angle_alpha   84.88546066
_cell_angle_beta   62.84116901
_cell_angle_gamma   32.27337033
_symmetry_Int_Tables_number   1
_chemical_formula_structural   K2NbCuS4
_chemical_formula_sum   'K4 Nb2 Cu2 S8'
_cell_volume   437.92133181
_cell_formula_units_Z   2
loop_
 _symmetry_equiv_pos_site_id
 _symmetry_equiv_pos_as_xyz
  1  'x, y, z'
loop_
 _atom_site_type_symbol
 _atom_site_label
 _atom_site_symmetry_multiplicity
 _atom_site_fract_x
 _atom_site_fract_y
 _atom_site_fract_z
 _atom_site_occupancy
  K  K0  1  0.321478  0.321478  0.678522  1
  K  K1  1  0.678522  0.678522  0.321478  1
  K  K2  1  0.928522  0.928522  0.571478  1
  K  K3  1  0.571478  0.571478  0.928522  1
  Nb  Nb4  1  0.500000  0.500000  0.500000  1
  Nb  Nb5  1  0.750000  0.750000  0.750000  1
  Cu  Cu6  1  0.000000  0.000000  0.000000  1
  Cu  Cu7  1  0.250000  0.250000  0.250000  1
  S  S8  1  0.589001  0.300392  0.211885  1
  S  S9  1  0.898723  0.211885  0.300392  1
  S  S10  1  0.038115  0.351277  0.660999  1
  S  S11  1  0.949608  0.660999  0.351277  1
  S  S12  1  0.660999  0.949608  0.038115  1
  S  S13  1  0.351277  0.038115  0.949608  1
  S  S14  1  0.211885  0.898723  0.589001  1
  S  S15  1  0.300392  0.589001  0.898723  1
