# generated using pymatgen
data_KCdF3
_symmetry_space_group_name_H-M   'P 1'
_cell_length_a   6.18673429
_cell_length_b   6.28933700
_cell_length_c   8.80182467
_cell_angle_alpha   90.00000000
_cell_angle_beta   90.00000000
_cell_angle_gamma   90.00000000
_symmetry_Int_Tables_number   1
_chemical_formula_structural   KCdF3
_chemical_formula_sum   'K4 Cd4 F12'
_cell_volume   342.48301928
_cell_formula_units_Z   4
loop_
 _symmetry_equiv_pos_site_id
 _symmetry_equiv_pos_as_xyz
  1  'x, y, z'
loop_
 _atom_site_type_symbol
 _atom_site_label
 _atom_site_symmetry_multiplicity
 _atom_site_fract_x
 _atom_site_fract_y
 _atom_site_fract_z
 _atom_site_occupancy
  K  K0  1  0.991761  0.041467  0.250000  1
  K  K1  1  0.508239  0.541467  0.250000  1
  K  K2  1  0.491761  0.458533  0.750000  1
  K  K3  1  0.008239  0.958533  0.750000  1
  Cd  Cd4  1  0.500000  0.000000  0.000000  1
  Cd  Cd5  1  0.000000  0.500000  0.500000  1
  Cd  Cd6  1  0.000000  0.500000  0.000000  1
  Cd  Cd7  1  0.500000  0.000000  0.500000  1
  F  F8  1  0.705648  0.292684  0.457851  1
  F  F9  1  0.794352  0.792684  0.042149  1
  F  F10  1  0.205648  0.207316  0.542149  1
  F  F11  1  0.294352  0.707316  0.957851  1
  F  F12  1  0.294352  0.707316  0.542149  1
  F  F13  1  0.205648  0.207316  0.957851  1
  F  F14  1  0.794352  0.792684  0.457851  1
  F  F15  1  0.705648  0.292684  0.042149  1
  F  F16  1  0.080392  0.472813  0.250000  1
  F  F17  1  0.419608  0.972813  0.250000  1
  F  F18  1  0.580392  0.027187  0.750000  1
  F  F19  1  0.919608  0.527187  0.750000  1
