# generated using pymatgen
data_Pr2Ge5Rh3
_symmetry_space_group_name_H-M   'P 1'
_cell_length_a   8.50885614
_cell_length_b   8.50885614
_cell_length_c   8.50885614
_cell_angle_alpha   138.04025539
_cell_angle_beta   106.39584206
_cell_angle_gamma   88.51664109
_symmetry_Int_Tables_number   1
_chemical_formula_structural   Pr2Ge5Rh3
_chemical_formula_sum   'Pr4 Ge10 Rh6'
_cell_volume   378.53384701
_cell_formula_units_Z   2
loop_
 _symmetry_equiv_pos_site_id
 _symmetry_equiv_pos_as_xyz
  1  'x, y, z'
loop_
 _atom_site_type_symbol
 _atom_site_label
 _atom_site_symmetry_multiplicity
 _atom_site_fract_x
 _atom_site_fract_y
 _atom_site_fract_z
 _atom_site_occupancy
  Pr  Pr0  1  0.598277  0.866694  0.731584  1
  Pr  Pr1  1  0.401723  0.133306  0.268416  1
  Pr  Pr2  1  0.864890  0.633306  0.231584  1
  Pr  Pr3  1  0.135110  0.366694  0.768416  1
  Ge  Ge4  1  0.500000  0.750000  0.250000  1
  Ge  Ge5  1  0.500000  0.250000  0.750000  1
  Ge  Ge6  1  0.778243  0.528243  0.750000  1
  Ge  Ge7  1  0.221757  0.971757  0.750000  1
  Ge  Ge8  1  0.221757  0.471757  0.250000  1
  Ge  Ge9  1  0.778243  0.028243  0.250000  1
  Ge  Ge10  1  0.260412  0.599390  0.661022  1
  Ge  Ge11  1  0.739588  0.400610  0.338978  1
  Ge  Ge12  1  0.061631  0.900610  0.161022  1
  Ge  Ge13  1  0.938369  0.099390  0.838978  1
  Rh  Rh14  1  0.535584  0.640779  0.894804  1
  Rh  Rh15  1  0.464416  0.359221  0.105196  1
  Rh  Rh16  1  0.254025  0.859221  0.394804  1
  Rh  Rh17  1  0.745975  0.140779  0.605196  1
  Rh  Rh18  1  0.000000  0.750000  0.750000  1
  Rh  Rh19  1  0.000000  0.250000  0.250000  1
