# generated using pymatgen
data_La8Al7BO24
_symmetry_space_group_name_H-M   'P 1'
_cell_length_a   7.57488647
_cell_length_b   7.57488647
_cell_length_c   7.57488647
_cell_angle_alpha   90.00000000
_cell_angle_beta   90.00000000
_cell_angle_gamma   90.00000000
_symmetry_Int_Tables_number   1
_chemical_formula_structural   La8Al7BO24
_chemical_formula_sum   'La8 Al7 B1 O24'
_cell_volume   434.63869140
_cell_formula_units_Z   1
loop_
 _symmetry_equiv_pos_site_id
 _symmetry_equiv_pos_as_xyz
  1  'x, y, z'
loop_
 _atom_site_type_symbol
 _atom_site_label
 _atom_site_symmetry_multiplicity
 _atom_site_fract_x
 _atom_site_fract_y
 _atom_site_fract_z
 _atom_site_occupancy
  La  La0  1  0.247353  0.247353  0.247353  1
  La  La1  1  0.247353  0.247353  0.752647  1
  La  La2  1  0.247353  0.752647  0.247353  1
  La  La3  1  0.247353  0.752647  0.752647  1
  La  La4  1  0.752647  0.247353  0.247353  1
  La  La5  1  0.752647  0.247353  0.752647  1
  La  La6  1  0.752647  0.752647  0.247353  1
  La  La7  1  0.752647  0.752647  0.752647  1
  Al  Al8  1  0.000000  0.000000  0.500000  1
  Al  Al9  1  0.000000  0.500000  0.000000  1
  Al  Al10  1  0.000000  0.500000  0.500000  1
  Al  Al11  1  0.500000  0.000000  0.000000  1
  Al  Al12  1  0.500000  0.000000  0.500000  1
  Al  Al13  1  0.500000  0.500000  0.000000  1
  Al  Al14  1  0.500000  0.500000  0.500000  1
  B  B15  1  0.000000  0.000000  0.000000  1
  O  O16  1  0.000000  0.236523  0.000000  1
  O  O17  1  0.000000  0.248054  0.500000  1
  O  O18  1  0.000000  0.763477  0.000000  1
  O  O19  1  0.000000  0.751946  0.500000  1
  O  O20  1  0.500000  0.248054  0.000000  1
  O  O21  1  0.500000  0.248901  0.500000  1
  O  O22  1  0.500000  0.751946  0.000000  1
  O  O23  1  0.500000  0.751099  0.500000  1
  O  O24  1  0.000000  0.000000  0.236523  1
  O  O25  1  0.000000  0.000000  0.763477  1
  O  O26  1  0.000000  0.500000  0.248054  1
  O  O27  1  0.000000  0.500000  0.751946  1
  O  O28  1  0.500000  0.000000  0.248054  1
  O  O29  1  0.500000  0.000000  0.751946  1
  O  O30  1  0.500000  0.500000  0.248901  1
  O  O31  1  0.500000  0.500000  0.751099  1
  O  O32  1  0.236523  0.000000  0.000000  1
  O  O33  1  0.248054  0.000000  0.500000  1
  O  O34  1  0.248054  0.500000  0.000000  1
  O  O35  1  0.248901  0.500000  0.500000  1
  O  O36  1  0.763477  0.000000  0.000000  1
  O  O37  1  0.751946  0.000000  0.500000  1
  O  O38  1  0.751946  0.500000  0.000000  1
  O  O39  1  0.751099  0.500000  0.500000  1
