# generated using pymatgen
data_SbPt3
_symmetry_space_group_name_H-M   'P 1'
_cell_length_a   5.09091673
_cell_length_b   5.09091673
_cell_length_c   5.09091673
_cell_angle_alpha   133.14267588
_cell_angle_beta   133.14267588
_cell_angle_gamma   68.43017275
_symmetry_Int_Tables_number   1
_chemical_formula_structural   SbPt3
_chemical_formula_sum   'Sb1 Pt3'
_cell_volume   68.99632839
_cell_formula_units_Z   1
loop_
 _symmetry_equiv_pos_site_id
 _symmetry_equiv_pos_as_xyz
  1  'x, y, z'
loop_
 _atom_site_type_symbol
 _atom_site_label
 _atom_site_symmetry_multiplicity
 _atom_site_fract_x
 _atom_site_fract_y
 _atom_site_fract_z
 _atom_site_occupancy
  Sb  Sb0  1  0.000000  0.000000  0.000000  1
  Pt  Pt1  1  0.250000  0.750000  0.500000  1
  Pt  Pt2  1  0.750000  0.250000  0.500000  1
  Pt  Pt3  1  0.500000  0.500000  0.000000  1
