# generated using pymatgen
data_OsRu3
_symmetry_space_group_name_H-M   'P 1'
_cell_length_a   5.47079308
_cell_length_b   5.47079308
_cell_length_c   4.32266756
_cell_angle_alpha   90.00000000
_cell_angle_beta   90.00000000
_cell_angle_gamma   120.00000000
_symmetry_Int_Tables_number   1
_chemical_formula_structural   OsRu3
_chemical_formula_sum   'Os2 Ru6'
_cell_volume   112.04256595
_cell_formula_units_Z   2
loop_
 _symmetry_equiv_pos_site_id
 _symmetry_equiv_pos_as_xyz
  1  'x, y, z'
loop_
 _atom_site_type_symbol
 _atom_site_label
 _atom_site_symmetry_multiplicity
 _atom_site_fract_x
 _atom_site_fract_y
 _atom_site_fract_z
 _atom_site_occupancy
  Os  Os0  1  0.666667  0.333333  0.250000  1
  Os  Os1  1  0.333333  0.666667  0.750000  1
  Ru  Ru2  1  0.832556  0.167444  0.750000  1
  Ru  Ru3  1  0.334887  0.167444  0.750000  1
  Ru  Ru4  1  0.832556  0.665113  0.750000  1
  Ru  Ru5  1  0.167444  0.832556  0.250000  1
  Ru  Ru6  1  0.665113  0.832556  0.250000  1
  Ru  Ru7  1  0.167444  0.334887  0.250000  1
