# generated using pymatgen
data_Rb2Mg
_symmetry_space_group_name_H-M   'P 1'
_cell_length_a   9.79684384
_cell_length_b   9.79684384
_cell_length_c   5.61795939
_cell_angle_alpha   90.00000000
_cell_angle_beta   90.00000000
_cell_angle_gamma   131.12136330
_symmetry_Int_Tables_number   1
_chemical_formula_structural   Rb2Mg
_chemical_formula_sum   'Rb4 Mg2'
_cell_volume   406.19020325
_cell_formula_units_Z   2
loop_
 _symmetry_equiv_pos_site_id
 _symmetry_equiv_pos_as_xyz
  1  'x, y, z'
loop_
 _atom_site_type_symbol
 _atom_site_label
 _atom_site_symmetry_multiplicity
 _atom_site_fract_x
 _atom_site_fract_y
 _atom_site_fract_z
 _atom_site_occupancy
  Rb  Rb0  1  0.591996  0.868070  0.250000  1
  Rb  Rb1  1  0.131930  0.408004  0.750000  1
  Rb  Rb2  1  0.408004  0.131930  0.750000  1
  Rb  Rb3  1  0.868070  0.591996  0.250000  1
  Mg  Mg4  1  0.908593  0.908593  0.750000  1
  Mg  Mg5  1  0.091407  0.091407  0.250000  1
