# generated using pymatgen
data_Y4C5
_symmetry_space_group_name_H-M   'P 1'
_cell_length_a   3.68341189
_cell_length_b   6.60634524
_cell_length_c   11.99585849
_cell_angle_alpha   90.00000000
_cell_angle_beta   90.00000000
_cell_angle_gamma   90.00000000
_symmetry_Int_Tables_number   1
_chemical_formula_structural   Y4C5
_chemical_formula_sum   'Y8 C10'
_cell_volume   291.90590823
_cell_formula_units_Z   2
loop_
 _symmetry_equiv_pos_site_id
 _symmetry_equiv_pos_as_xyz
  1  'x, y, z'
loop_
 _atom_site_type_symbol
 _atom_site_label
 _atom_site_symmetry_multiplicity
 _atom_site_fract_x
 _atom_site_fract_y
 _atom_site_fract_z
 _atom_site_occupancy
  Y  Y0  1  0.000000  0.256585  0.542869  1
  Y  Y1  1  0.000000  0.743415  0.457131  1
  Y  Y2  1  0.000000  0.756585  0.957131  1
  Y  Y3  1  0.000000  0.243415  0.042869  1
  Y  Y4  1  0.500000  0.106784  0.804023  1
  Y  Y5  1  0.500000  0.893216  0.195977  1
  Y  Y6  1  0.500000  0.606784  0.695977  1
  Y  Y7  1  0.500000  0.393216  0.304023  1
  C  C8  1  0.500000  0.500000  0.500000  1
  C  C9  1  0.500000  0.000000  0.000000  1
  C  C10  1  0.000000  0.360438  0.736085  1
  C  C11  1  0.000000  0.639562  0.263915  1
  C  C12  1  0.000000  0.860438  0.763915  1
  C  C13  1  0.000000  0.139562  0.236085  1
  C  C14  1  0.000000  0.402504  0.844653  1
  C  C15  1  0.000000  0.597496  0.155347  1
  C  C16  1  0.000000  0.097496  0.344653  1
  C  C17  1  0.000000  0.902504  0.655347  1
