# generated using pymatgen
data_LaOsN3
_symmetry_space_group_name_H-M   'P 1'
_cell_length_a   5.57403781
_cell_length_b   5.57876593
_cell_length_c   7.92000481
_cell_angle_alpha   90.00000000
_cell_angle_beta   90.00000000
_cell_angle_gamma   90.00000000
_symmetry_Int_Tables_number   1
_chemical_formula_structural   LaOsN3
_chemical_formula_sum   'La4 Os4 N12'
_cell_volume   246.28246763
_cell_formula_units_Z   4
loop_
 _symmetry_equiv_pos_site_id
 _symmetry_equiv_pos_as_xyz
  1  'x, y, z'
loop_
 _atom_site_type_symbol
 _atom_site_label
 _atom_site_symmetry_multiplicity
 _atom_site_fract_x
 _atom_site_fract_y
 _atom_site_fract_z
 _atom_site_occupancy
  La  La0  1  0.483237  0.500455  0.250000  1
  La  La1  1  0.983237  0.999545  0.250000  1
  La  La2  1  0.016763  0.000455  0.750000  1
  La  La3  1  0.516763  0.499545  0.750000  1
  Os  Os4  1  0.000000  0.500000  0.000000  1
  Os  Os5  1  0.500000  0.000000  0.500000  1
  Os  Os6  1  0.500000  0.000000  0.000000  1
  Os  Os7  1  0.000000  0.500000  0.500000  1
  N  N8  1  0.777491  0.222227  0.521988  1
  N  N9  1  0.222509  0.777773  0.021988  1
  N  N10  1  0.222509  0.777773  0.478012  1
  N  N11  1  0.503560  0.043678  0.250000  1
  N  N12  1  0.003560  0.456322  0.250000  1
  N  N13  1  0.496440  0.956322  0.750000  1
  N  N14  1  0.777491  0.222227  0.978012  1
  N  N15  1  0.277491  0.277773  0.978012  1
  N  N16  1  0.277491  0.277773  0.521988  1
  N  N17  1  0.722509  0.722227  0.021988  1
  N  N18  1  0.996440  0.543678  0.750000  1
  N  N19  1  0.722509  0.722227  0.478012  1
