# generated using pymatgen
data_TmGe
_symmetry_space_group_name_H-M   'P 1'
_cell_length_a   5.70744672
_cell_length_b   5.70744672
_cell_length_c   3.91267175
_cell_angle_alpha   90.00000000
_cell_angle_beta   90.00000000
_cell_angle_gamma   136.46681665
_symmetry_Int_Tables_number   1
_chemical_formula_structural   TmGe
_chemical_formula_sum   'Tm2 Ge2'
_cell_volume   87.78781683
_cell_formula_units_Z   2
loop_
 _symmetry_equiv_pos_site_id
 _symmetry_equiv_pos_as_xyz
  1  'x, y, z'
loop_
 _atom_site_type_symbol
 _atom_site_label
 _atom_site_symmetry_multiplicity
 _atom_site_fract_x
 _atom_site_fract_y
 _atom_site_fract_z
 _atom_site_occupancy
  Tm  Tm0  1  0.861931  0.138069  0.250000  1
  Tm  Tm1  1  0.138069  0.861931  0.750000  1
  Ge  Ge2  1  0.587280  0.412720  0.250000  1
  Ge  Ge3  1  0.412720  0.587280  0.750000  1
