# generated using pymatgen
data_K2NaGaAs2
_symmetry_space_group_name_H-M   'P 1'
_cell_length_a   8.91038114
_cell_length_b   8.91038114
_cell_length_c   8.91038114
_cell_angle_alpha   136.14591819
_cell_angle_beta   135.12823091
_cell_angle_gamma   64.54550359
_symmetry_Int_Tables_number   1
_chemical_formula_structural   K2NaGaAs2
_chemical_formula_sum   'K4 Na2 Ga2 As4'
_cell_volume   340.98811975
_cell_formula_units_Z   2
loop_
 _symmetry_equiv_pos_site_id
 _symmetry_equiv_pos_as_xyz
  1  'x, y, z'
loop_
 _atom_site_type_symbol
 _atom_site_label
 _atom_site_symmetry_multiplicity
 _atom_site_fract_x
 _atom_site_fract_y
 _atom_site_fract_z
 _atom_site_occupancy
  K  K0  1  0.082182  0.327054  0.755128  1
  K  K1  1  0.571926  0.827054  0.744872  1
  K  K2  1  0.428074  0.172946  0.255128  1
  K  K3  1  0.917818  0.672946  0.244872  1
  Na  Na4  1  0.500000  0.750000  0.250000  1
  Na  Na5  1  0.500000  0.250000  0.750000  1
  Ga  Ga6  1  0.000000  0.250000  0.250000  1
  Ga  Ga7  1  0.000000  0.750000  0.750000  1
  As  As8  1  0.296931  0.594812  0.702118  1
  As  As9  1  0.703069  0.405188  0.297882  1
  As  As10  1  0.107306  0.905188  0.202118  1
  As  As11  1  0.892694  0.094812  0.797882  1
