# generated using pymatgen
data_Li7ZrO6
_symmetry_space_group_name_H-M   'P 1'
_cell_length_a   6.03888188
_cell_length_b   6.03888188
_cell_length_c   6.03888188
_cell_angle_alpha   56.00219186
_cell_angle_beta   56.00219186
_cell_angle_gamma   56.00219186
_symmetry_Int_Tables_number   1
_chemical_formula_structural   Li7ZrO6
_chemical_formula_sum   'Li7 Zr1 O6'
_cell_volume   141.30107124
_cell_formula_units_Z   1
loop_
 _symmetry_equiv_pos_site_id
 _symmetry_equiv_pos_as_xyz
  1  'x, y, z'
loop_
 _atom_site_type_symbol
 _atom_site_label
 _atom_site_symmetry_multiplicity
 _atom_site_fract_x
 _atom_site_fract_y
 _atom_site_fract_z
 _atom_site_occupancy
  Li  Li0  1  0.229825  0.491314  0.927984  1
  Li  Li1  1  0.124934  0.729351  0.494868  1
  Li  Li2  1  0.494868  0.124934  0.729351  1
  Li  Li3  1  0.653286  0.653286  0.653286  1
  Li  Li4  1  0.491314  0.927984  0.229825  1
  Li  Li5  1  0.927984  0.229825  0.491314  1
  Li  Li6  1  0.729351  0.494868  0.124934  1
  Zr  Zr7  1  0.000195  0.000195  0.000195  1
  O  O8  1  0.070147  0.387270  0.796824  1
  O  O9  1  0.238091  0.880986  0.630030  1
  O  O10  1  0.630030  0.238091  0.880986  1
  O  O11  1  0.387270  0.796824  0.070147  1
  O  O12  1  0.796824  0.070147  0.387270  1
  O  O13  1  0.880986  0.630030  0.238091  1
