# generated using pymatgen
data_AgHO2
_symmetry_space_group_name_H-M   'P 1'
_cell_length_a   5.62217231
_cell_length_b   5.62217231
_cell_length_c   3.94592946
_cell_angle_alpha   70.62325742
_cell_angle_beta   109.37674258
_cell_angle_gamma   97.84627418
_symmetry_Int_Tables_number   1
_chemical_formula_structural   AgHO2
_chemical_formula_sum   'Ag2 H2 O4'
_cell_volume   110.94772587
_cell_formula_units_Z   2
loop_
 _symmetry_equiv_pos_site_id
 _symmetry_equiv_pos_as_xyz
  1  'x, y, z'
loop_
 _atom_site_type_symbol
 _atom_site_label
 _atom_site_symmetry_multiplicity
 _atom_site_fract_x
 _atom_site_fract_y
 _atom_site_fract_z
 _atom_site_occupancy
  Ag  Ag0  1  0.993090  0.507100  0.176590  1
  Ag  Ag1  1  0.492900  0.006910  0.176590  1
  H  H2  1  0.021810  0.978190  0.760920  1
  H  H3  1  0.966370  0.033630  0.210050  1
  O  O4  1  0.108505  0.891495  0.038480  1
  O  O5  1  0.385840  0.438910  0.728550  1
  O  O6  1  0.879760  0.120240  0.323780  1
  O  O7  1  0.561090  0.614160  0.728550  1
