# generated using pymatgen
data_SrTcN3
_symmetry_space_group_name_H-M   'P 1'
_cell_length_a   6.55100023
_cell_length_b   6.55100023
_cell_length_c   6.70894561
_cell_angle_alpha   75.63629553
_cell_angle_beta   104.36370447
_cell_angle_gamma   146.52892395
_symmetry_Int_Tables_number   1
_chemical_formula_structural   SrTcN3
_chemical_formula_sum   'Sr2 Tc2 N6'
_cell_volume   153.37115959
_cell_formula_units_Z   2
loop_
 _symmetry_equiv_pos_site_id
 _symmetry_equiv_pos_as_xyz
  1  'x, y, z'
loop_
 _atom_site_type_symbol
 _atom_site_label
 _atom_site_symmetry_multiplicity
 _atom_site_fract_x
 _atom_site_fract_y
 _atom_site_fract_z
 _atom_site_occupancy
  Sr  Sr0  1  0.616080  0.383920  0.329860  1
  Sr  Sr1  1  0.383920  0.616080  0.670140  1
  Tc  Tc2  1  0.157260  0.842740  0.859400  1
  Tc  Tc3  1  0.842740  0.157260  0.140600  1
  N  N4  1  0.318080  0.681920  0.012230  1
  N  N5  1  0.006800  0.993200  0.908560  1
  N  N6  1  0.993200  0.006800  0.091440  1
  N  N7  1  0.156320  0.843680  0.595800  1
  N  N8  1  0.681920  0.318080  0.987770  1
  N  N9  1  0.843680  0.156320  0.404200  1
