# generated using pymatgen
data_PrAl4Co
_symmetry_space_group_name_H-M   'P 1'
_cell_length_a   4.03311320
_cell_length_b   6.90513530
_cell_length_c   7.67473648
_cell_angle_alpha   90.00000000
_cell_angle_beta   90.00000000
_cell_angle_gamma   90.00000000
_symmetry_Int_Tables_number   1
_chemical_formula_structural   PrAl4Co
_chemical_formula_sum   'Pr2 Al8 Co2'
_cell_volume   213.73521228
_cell_formula_units_Z   2
loop_
 _symmetry_equiv_pos_site_id
 _symmetry_equiv_pos_as_xyz
  1  'x, y, z'
loop_
 _atom_site_type_symbol
 _atom_site_label
 _atom_site_symmetry_multiplicity
 _atom_site_fract_x
 _atom_site_fract_y
 _atom_site_fract_z
 _atom_site_occupancy
  Pr  Pr0  1  0.000000  0.884029  0.250000  1
  Pr  Pr1  1  0.000000  0.115971  0.750000  1
  Al  Al2  1  0.000000  0.500000  0.000000  1
  Al  Al3  1  0.000000  0.500000  0.500000  1
  Al  Al4  1  0.500000  0.541758  0.250000  1
  Al  Al5  1  0.500000  0.798810  0.570782  1
  Al  Al6  1  0.500000  0.798810  0.929218  1
  Al  Al7  1  0.500000  0.201190  0.070782  1
  Al  Al8  1  0.500000  0.201190  0.429218  1
  Al  Al9  1  0.500000  0.458242  0.750000  1
  Co  Co10  1  0.000000  0.683106  0.750000  1
  Co  Co11  1  0.000000  0.316894  0.250000  1
