# generated using pymatgen
data_ZrSiPt
_symmetry_space_group_name_H-M   'P 1'
_cell_length_a   3.93229280
_cell_length_b   6.66534967
_cell_length_c   7.62328397
_cell_angle_alpha   90.00000000
_cell_angle_beta   90.00000000
_cell_angle_gamma   90.00000000
_symmetry_Int_Tables_number   1
_chemical_formula_structural   ZrSiPt
_chemical_formula_sum   'Zr4 Si4 Pt4'
_cell_volume   199.80708486
_cell_formula_units_Z   4
loop_
 _symmetry_equiv_pos_site_id
 _symmetry_equiv_pos_as_xyz
  1  'x, y, z'
loop_
 _atom_site_type_symbol
 _atom_site_label
 _atom_site_symmetry_multiplicity
 _atom_site_fract_x
 _atom_site_fract_y
 _atom_site_fract_z
 _atom_site_occupancy
  Zr  Zr0  1  0.250000  0.525069  0.177788  1
  Zr  Zr1  1  0.250000  0.025069  0.322212  1
  Zr  Zr2  1  0.750000  0.974931  0.677788  1
  Zr  Zr3  1  0.750000  0.474931  0.822212  1
  Si  Si4  1  0.750000  0.236216  0.121974  1
  Si  Si5  1  0.750000  0.736216  0.378026  1
  Si  Si6  1  0.250000  0.263784  0.621974  1
  Si  Si7  1  0.250000  0.763784  0.878026  1
  Pt  Pt8  1  0.750000  0.854095  0.064090  1
  Pt  Pt9  1  0.750000  0.354095  0.435910  1
  Pt  Pt10  1  0.250000  0.645905  0.564090  1
  Pt  Pt11  1  0.250000  0.145905  0.935910  1
