# generated using pymatgen
data_BaDyCuTe3
_symmetry_space_group_name_H-M   'P 1'
_cell_length_a   7.82052383
_cell_length_b   7.82052383
_cell_length_c   11.43505790
_cell_angle_alpha   90.00000000
_cell_angle_beta   90.00000000
_cell_angle_gamma   147.02225661
_symmetry_Int_Tables_number   1
_chemical_formula_structural   BaDyCuTe3
_chemical_formula_sum   'Ba2 Dy2 Cu2 Te6'
_cell_volume   380.67900992
_cell_formula_units_Z   2
loop_
 _symmetry_equiv_pos_site_id
 _symmetry_equiv_pos_as_xyz
  1  'x, y, z'
loop_
 _atom_site_type_symbol
 _atom_site_label
 _atom_site_symmetry_multiplicity
 _atom_site_fract_x
 _atom_site_fract_y
 _atom_site_fract_z
 _atom_site_occupancy
  Ba  Ba0  1  0.749283  0.250717  0.250000  1
  Ba  Ba1  1  0.250717  0.749283  0.750000  1
  Dy  Dy2  1  0.500000  0.500000  0.500000  1
  Dy  Dy3  1  0.500000  0.500000  0.000000  1
  Cu  Cu4  1  0.967899  0.032101  0.750000  1
  Cu  Cu5  1  0.032101  0.967899  0.250000  1
  Te  Te6  1  0.136052  0.863948  0.438848  1
  Te  Te7  1  0.863948  0.136052  0.561152  1
  Te  Te8  1  0.863948  0.136052  0.938848  1
  Te  Te9  1  0.136052  0.863948  0.061152  1
  Te  Te10  1  0.570434  0.429566  0.750000  1
  Te  Te11  1  0.429566  0.570434  0.250000  1
