# generated using pymatgen
data_NiBiO3
_symmetry_space_group_name_H-M   'P 1'
_cell_length_a   3.91821454
_cell_length_b   3.91821454
_cell_length_c   3.87091747
_cell_angle_alpha   89.27845119
_cell_angle_beta   90.72154881
_cell_angle_gamma   91.63102741
_symmetry_Int_Tables_number   1
_chemical_formula_structural   NiBiO3
_chemical_formula_sum   'Ni1 Bi1 O3'
_cell_volume   59.39465552
_cell_formula_units_Z   1
loop_
 _symmetry_equiv_pos_site_id
 _symmetry_equiv_pos_as_xyz
  1  'x, y, z'
loop_
 _atom_site_type_symbol
 _atom_site_label
 _atom_site_symmetry_multiplicity
 _atom_site_fract_x
 _atom_site_fract_y
 _atom_site_fract_z
 _atom_site_occupancy
  Ni  Ni0  1  0.508808  0.491192  0.492549  1
  Bi  Bi1  1  0.936596  0.063404  0.031051  1
  O  O2  1  0.017808  0.448985  0.478282  1
  O  O3  1  0.551015  0.982192  0.478282  1
  O  O4  1  0.539177  0.460823  0.990011  1
