# generated using pymatgen
data_TlAgBr3
_symmetry_space_group_name_H-M   'P 1'
_cell_length_a   5.40856352
_cell_length_b   5.40856352
_cell_length_c   5.40652567
_cell_angle_alpha   89.88538631
_cell_angle_beta   90.11461369
_cell_angle_gamma   90.09653970
_symmetry_Int_Tables_number   1
_chemical_formula_structural   TlAgBr3
_chemical_formula_sum   'Tl1 Ag1 Br3'
_cell_volume   158.15385675
_cell_formula_units_Z   1
loop_
 _symmetry_equiv_pos_site_id
 _symmetry_equiv_pos_as_xyz
  1  'x, y, z'
loop_
 _atom_site_type_symbol
 _atom_site_label
 _atom_site_symmetry_multiplicity
 _atom_site_fract_x
 _atom_site_fract_y
 _atom_site_fract_z
 _atom_site_occupancy
  Tl  Tl0  1  0.996646  0.003354  0.998567  1
  Ag  Ag1  1  0.497556  0.502444  0.514905  1
  Br  Br2  1  0.493537  0.001124  0.517814  1
  Br  Br3  1  0.505271  0.494729  0.015043  1
  Br  Br4  1  0.998876  0.506463  0.517814  1
