# generated using pymatgen
data_PdAuO2
_symmetry_space_group_name_H-M   'P 1'
_cell_length_a   6.48940762
_cell_length_b   6.48940762
_cell_length_c   6.30874201
_cell_angle_alpha   72.15496107
_cell_angle_beta   107.84503893
_cell_angle_gamma   152.41849411
_symmetry_Int_Tables_number   1
_chemical_formula_structural   PdAuO2
_chemical_formula_sum   'Pd2 Au2 O4'
_cell_volume   116.72645755
_cell_formula_units_Z   2
loop_
 _symmetry_equiv_pos_site_id
 _symmetry_equiv_pos_as_xyz
  1  'x, y, z'
loop_
 _atom_site_type_symbol
 _atom_site_label
 _atom_site_symmetry_multiplicity
 _atom_site_fract_x
 _atom_site_fract_y
 _atom_site_fract_z
 _atom_site_occupancy
  Pd  Pd0  1  0.000000  0.000000  0.500000  1
  Pd  Pd1  1  0.500000  0.500000  0.000000  1
  Au  Au2  1  0.265157  0.734843  0.210650  1
  Au  Au3  1  0.734843  0.265157  0.789350  1
  O  O4  1  0.561369  0.438631  0.722206  1
  O  O5  1  0.901606  0.098394  0.832121  1
  O  O6  1  0.098394  0.901606  0.167879  1
  O  O7  1  0.438631  0.561369  0.277794  1
