# generated using pymatgen
data_Hg3As
_symmetry_space_group_name_H-M   'P 1'
_cell_length_a   6.12245342
_cell_length_b   6.12245342
_cell_length_c   5.98354484
_cell_angle_alpha   90.00000000
_cell_angle_beta   90.00000000
_cell_angle_gamma   120.00000000
_symmetry_Int_Tables_number   1
_chemical_formula_structural   Hg3As
_chemical_formula_sum   'Hg6 As2'
_cell_volume   194.24066713
_cell_formula_units_Z   2
loop_
 _symmetry_equiv_pos_site_id
 _symmetry_equiv_pos_as_xyz
  1  'x, y, z'
loop_
 _atom_site_type_symbol
 _atom_site_label
 _atom_site_symmetry_multiplicity
 _atom_site_fract_x
 _atom_site_fract_y
 _atom_site_fract_z
 _atom_site_occupancy
  Hg  Hg0  1  0.166865  0.333729  0.250000  1
  Hg  Hg1  1  0.666271  0.833135  0.250000  1
  Hg  Hg2  1  0.166865  0.833135  0.250000  1
  Hg  Hg3  1  0.833135  0.666271  0.750000  1
  Hg  Hg4  1  0.333729  0.166865  0.750000  1
  Hg  Hg5  1  0.833135  0.166865  0.750000  1
  As  As6  1  0.333333  0.666667  0.750000  1
  As  As7  1  0.666667  0.333333  0.250000  1
