# generated using pymatgen
data_Na2ZrO3
_symmetry_space_group_name_H-M   'P 1'
_cell_length_a   5.69582261
_cell_length_b   5.69582261
_cell_length_c   11.24118396
_cell_angle_alpha   85.06210141
_cell_angle_beta   94.93789859
_cell_angle_gamma   59.93790592
_symmetry_Int_Tables_number   1
_chemical_formula_structural   Na2ZrO3
_chemical_formula_sum   'Na8 Zr4 O12'
_cell_volume   310.91260356
_cell_formula_units_Z   4
loop_
 _symmetry_equiv_pos_site_id
 _symmetry_equiv_pos_as_xyz
  1  'x, y, z'
loop_
 _atom_site_type_symbol
 _atom_site_label
 _atom_site_symmetry_multiplicity
 _atom_site_fract_x
 _atom_site_fract_y
 _atom_site_fract_z
 _atom_site_occupancy
  Na  Na0  1  0.584438  0.584438  0.750000  1
  Na  Na1  1  0.415562  0.415562  0.250000  1
  Na  Na2  1  0.000000  0.500000  0.000000  1
  Na  Na3  1  0.500000  0.000000  0.500000  1
  Na  Na4  1  0.180966  0.659904  0.500131  1
  Na  Na5  1  0.659904  0.180966  0.999869  1
  Na  Na6  1  0.819034  0.340096  0.499869  1
  Na  Na7  1  0.340096  0.819034  0.000131  1
  Zr  Zr8  1  0.917695  0.917695  0.750000  1
  Zr  Zr9  1  0.082305  0.082305  0.250000  1
  Zr  Zr10  1  0.749850  0.749850  0.250000  1
  Zr  Zr11  1  0.250150  0.250150  0.750000  1
  O  O12  1  0.009522  0.821628  0.144379  1
  O  O13  1  0.821628  0.009522  0.355621  1
  O  O14  1  0.990478  0.178372  0.855621  1
  O  O15  1  0.178372  0.990478  0.644379  1
  O  O16  1  0.920211  0.620164  0.644627  1
  O  O17  1  0.620164  0.920211  0.855373  1
  O  O18  1  0.079789  0.379836  0.355373  1
  O  O19  1  0.379836  0.079789  0.144627  1
  O  O20  1  0.250893  0.548056  0.857394  1
  O  O21  1  0.548056  0.250893  0.642606  1
  O  O22  1  0.749107  0.451944  0.142606  1
  O  O23  1  0.451944  0.749107  0.357394  1
