# generated using pymatgen
data_La8Al7GaO24
_symmetry_space_group_name_H-M   'P 1'
_cell_length_a   7.65214754
_cell_length_b   7.65214754
_cell_length_c   7.65214754
_cell_angle_alpha   90.00000000
_cell_angle_beta   90.00000000
_cell_angle_gamma   90.00000000
_symmetry_Int_Tables_number   1
_chemical_formula_structural   La8Al7GaO24
_chemical_formula_sum   'La8 Al7 Ga1 O24'
_cell_volume   448.07426908
_cell_formula_units_Z   1
loop_
 _symmetry_equiv_pos_site_id
 _symmetry_equiv_pos_as_xyz
  1  'x, y, z'
loop_
 _atom_site_type_symbol
 _atom_site_label
 _atom_site_symmetry_multiplicity
 _atom_site_fract_x
 _atom_site_fract_y
 _atom_site_fract_z
 _atom_site_occupancy
  La  La0  1  0.250250  0.250250  0.250250  1
  La  La1  1  0.250250  0.250250  0.749750  1
  La  La2  1  0.250250  0.749750  0.250250  1
  La  La3  1  0.250250  0.749750  0.749750  1
  La  La4  1  0.749750  0.250250  0.250250  1
  La  La5  1  0.749750  0.250250  0.749750  1
  La  La6  1  0.749750  0.749750  0.250250  1
  La  La7  1  0.749750  0.749750  0.749750  1
  Al  Al8  1  0.000000  0.000000  0.500000  1
  Al  Al9  1  0.000000  0.500000  0.000000  1
  Al  Al10  1  0.000000  0.500000  0.500000  1
  Al  Al11  1  0.500000  0.000000  0.000000  1
  Al  Al12  1  0.500000  0.000000  0.500000  1
  Al  Al13  1  0.500000  0.500000  0.000000  1
  Al  Al14  1  0.500000  0.500000  0.500000  1
  Ga  Ga15  1  0.000000  0.000000  0.000000  1
  O  O16  1  0.000000  0.255688  0.000000  1
  O  O17  1  0.000000  0.250368  0.500000  1
  O  O18  1  0.000000  0.744312  0.000000  1
  O  O19  1  0.000000  0.749632  0.500000  1
  O  O20  1  0.500000  0.250368  0.000000  1
  O  O21  1  0.500000  0.250099  0.500000  1
  O  O22  1  0.500000  0.749632  0.000000  1
  O  O23  1  0.500000  0.749901  0.500000  1
  O  O24  1  0.000000  0.000000  0.255688  1
  O  O25  1  0.000000  0.000000  0.744312  1
  O  O26  1  0.000000  0.500000  0.250368  1
  O  O27  1  0.000000  0.500000  0.749632  1
  O  O28  1  0.500000  0.000000  0.250368  1
  O  O29  1  0.500000  0.000000  0.749632  1
  O  O30  1  0.500000  0.500000  0.250099  1
  O  O31  1  0.500000  0.500000  0.749901  1
  O  O32  1  0.255688  0.000000  0.000000  1
  O  O33  1  0.250368  0.000000  0.500000  1
  O  O34  1  0.250368  0.500000  0.000000  1
  O  O35  1  0.250099  0.500000  0.500000  1
  O  O36  1  0.744312  0.000000  0.000000  1
  O  O37  1  0.749632  0.000000  0.500000  1
  O  O38  1  0.749632  0.500000  0.000000  1
  O  O39  1  0.749901  0.500000  0.500000  1
