# generated using pymatgen
data_AuBrO2
_symmetry_space_group_name_H-M   'P 1'
_cell_length_a   10.98579996
_cell_length_b   10.98579996
_cell_length_c   3.62052578
_cell_angle_alpha   88.94605012
_cell_angle_beta   91.05394988
_cell_angle_gamma   25.47600679
_symmetry_Int_Tables_number   1
_chemical_formula_structural   AuBrO2
_chemical_formula_sum   'Au2 Br2 O4'
_cell_volume   187.29295137
_cell_formula_units_Z   2
loop_
 _symmetry_equiv_pos_site_id
 _symmetry_equiv_pos_as_xyz
  1  'x, y, z'
loop_
 _atom_site_type_symbol
 _atom_site_label
 _atom_site_symmetry_multiplicity
 _atom_site_fract_x
 _atom_site_fract_y
 _atom_site_fract_z
 _atom_site_occupancy
  Au  Au0  1  0.500000  0.000000  0.000000  1
  Au  Au1  1  0.000000  0.500000  0.500000  1
  Br  Br2  1  0.345420  0.345420  0.750000  1
  Br  Br3  1  0.654580  0.654580  0.250000  1
  O  O4  1  0.903200  0.158720  0.735730  1
  O  O5  1  0.841280  0.096800  0.235730  1
  O  O6  1  0.096800  0.841280  0.264270  1
  O  O7  1  0.158720  0.903200  0.764270  1
