# generated using pymatgen
data_MoPt
_symmetry_space_group_name_H-M   'P 1'
_cell_length_a   2.75969713
_cell_length_b   4.50609816
_cell_length_c   4.96998386
_cell_angle_alpha   90.00000000
_cell_angle_beta   90.00000000
_cell_angle_gamma   90.00000000
_symmetry_Int_Tables_number   1
_chemical_formula_structural   MoPt
_chemical_formula_sum   'Mo2 Pt2'
_cell_volume   61.80406611
_cell_formula_units_Z   2
loop_
 _symmetry_equiv_pos_site_id
 _symmetry_equiv_pos_as_xyz
  1  'x, y, z'
loop_
 _atom_site_type_symbol
 _atom_site_label
 _atom_site_symmetry_multiplicity
 _atom_site_fract_x
 _atom_site_fract_y
 _atom_site_fract_z
 _atom_site_occupancy
  Mo  Mo0  1  0.000000  0.750000  0.164804  1
  Mo  Mo1  1  0.000000  0.250000  0.835196  1
  Pt  Pt2  1  0.500000  0.750000  0.666006  1
  Pt  Pt3  1  0.500000  0.250000  0.333994  1
