# generated using pymatgen
data_Li3Cr2CuO6
_symmetry_space_group_name_H-M   'P 1'
_cell_length_a   6.59152106
_cell_length_b   6.59152106
_cell_length_c   5.88238946
_cell_angle_alpha   77.24403296
_cell_angle_beta   102.75596704
_cell_angle_gamma   154.15348181
_symmetry_Int_Tables_number   1
_chemical_formula_structural   Li3Cr2CuO6
_chemical_formula_sum   'Li3 Cr2 Cu1 O6'
_cell_volume   108.52597848
_cell_formula_units_Z   1
loop_
 _symmetry_equiv_pos_site_id
 _symmetry_equiv_pos_as_xyz
  1  'x, y, z'
loop_
 _atom_site_type_symbol
 _atom_site_label
 _atom_site_symmetry_multiplicity
 _atom_site_fract_x
 _atom_site_fract_y
 _atom_site_fract_z
 _atom_site_occupancy
  Li  Li0  1  0.500000  0.500000  0.500000  1
  Li  Li1  1  0.162432  0.837568  0.832548  1
  Li  Li2  1  0.837568  0.162432  0.167452  1
  Cr  Cr3  1  0.166305  0.833695  0.329320  1
  Cr  Cr4  1  0.833695  0.166305  0.670680  1
  Cu  Cu5  1  0.500000  0.500000  0.000000  1
  O  O6  1  0.663646  0.336354  0.095367  1
  O  O7  1  0.328700  0.671300  0.432166  1
  O  O8  1  0.336354  0.663646  0.904633  1
  O  O9  1  0.992692  0.007308  0.761089  1
  O  O10  1  0.007308  0.992692  0.238911  1
  O  O11  1  0.671300  0.328700  0.567834  1
