# generated using pymatgen
data_RbPbBr3
_symmetry_space_group_name_H-M   'P 1'
_cell_length_a   5.98508428
_cell_length_b   5.98508428
_cell_length_c   5.98042420
_cell_angle_alpha   89.94260667
_cell_angle_beta   90.05739333
_cell_angle_gamma   89.93227756
_symmetry_Int_Tables_number   1
_chemical_formula_structural   RbPbBr3
_chemical_formula_sum   'Rb1 Pb1 Br3'
_cell_volume   214.22580855
_cell_formula_units_Z   1
loop_
 _symmetry_equiv_pos_site_id
 _symmetry_equiv_pos_as_xyz
  1  'x, y, z'
loop_
 _atom_site_type_symbol
 _atom_site_label
 _atom_site_symmetry_multiplicity
 _atom_site_fract_x
 _atom_site_fract_y
 _atom_site_fract_z
 _atom_site_occupancy
  Rb  Rb0  1  0.002956  0.997044  0.000195  1
  Pb  Pb1  1  0.505275  0.494725  0.516432  1
  Br  Br2  1  0.504066  0.997231  0.514725  1
  Br  Br3  1  0.491389  0.508611  0.015849  1
  Br  Br4  1  0.002769  0.495934  0.514725  1
