# generated using pymatgen
data_TmMg5
_symmetry_space_group_name_H-M   'P 1'
_cell_length_a   3.25436411
_cell_length_b   3.25436411
_cell_length_c   15.88682066
_cell_angle_alpha   90.00000000
_cell_angle_beta   90.00000000
_cell_angle_gamma   120.00000000
_symmetry_Int_Tables_number   1
_chemical_formula_structural   TmMg5
_chemical_formula_sum   'Tm1 Mg5'
_cell_volume   145.71353983
_cell_formula_units_Z   1
loop_
 _symmetry_equiv_pos_site_id
 _symmetry_equiv_pos_as_xyz
  1  'x, y, z'
loop_
 _atom_site_type_symbol
 _atom_site_label
 _atom_site_symmetry_multiplicity
 _atom_site_fract_x
 _atom_site_fract_y
 _atom_site_fract_z
 _atom_site_occupancy
  Tm  Tm0  1  0.666667  0.333333  0.500000  1
  Mg  Mg1  1  0.000000  0.000000  0.676304  1
  Mg  Mg2  1  0.666667  0.333333  0.838359  1
  Mg  Mg3  1  0.000000  0.000000  0.000000  1
  Mg  Mg4  1  0.666667  0.333333  0.161641  1
  Mg  Mg5  1  0.000000  0.000000  0.323696  1
