# generated using pymatgen
data_MnInF3
_symmetry_space_group_name_H-M   'P 1'
_cell_length_a   4.30914681
_cell_length_b   4.31111091
_cell_length_c   4.31322078
_cell_angle_alpha   89.79987028
_cell_angle_beta   89.52549704
_cell_angle_gamma   89.92995048
_symmetry_Int_Tables_number   1
_chemical_formula_structural   MnInF3
_chemical_formula_sum   'Mn1 In1 F3'
_cell_volume   80.12431382
_cell_formula_units_Z   1
loop_
 _symmetry_equiv_pos_site_id
 _symmetry_equiv_pos_as_xyz
  1  'x, y, z'
loop_
 _atom_site_type_symbol
 _atom_site_label
 _atom_site_symmetry_multiplicity
 _atom_site_fract_x
 _atom_site_fract_y
 _atom_site_fract_z
 _atom_site_occupancy
  Mn  Mn0  1  0.487477  0.498510  0.494937  1
  In  In1  1  0.996044  0.996466  0.990614  1
  F  F2  1  0.482761  0.999274  0.499290  1
  F  F3  1  0.986600  0.505561  0.508586  1
  F  F4  1  0.487118  0.500184  0.996575  1
