# generated using pymatgen
data_TlGeF3
_symmetry_space_group_name_H-M   'P 1'
_cell_length_a   4.72037258
_cell_length_b   4.73178087
_cell_length_c   4.85976163
_cell_angle_alpha   101.85564473
_cell_angle_beta   93.83099210
_cell_angle_gamma   90.37063919
_symmetry_Int_Tables_number   1
_chemical_formula_structural   TlGeF3
_chemical_formula_sum   'Tl1 Ge1 F3'
_cell_volume   105.97098517
_cell_formula_units_Z   1
loop_
 _symmetry_equiv_pos_site_id
 _symmetry_equiv_pos_as_xyz
  1  'x, y, z'
loop_
 _atom_site_type_symbol
 _atom_site_label
 _atom_site_symmetry_multiplicity
 _atom_site_fract_x
 _atom_site_fract_y
 _atom_site_fract_z
 _atom_site_occupancy
  Tl  Tl0  1  0.104629  0.033400  0.962179  1
  Ge  Ge1  1  0.518156  0.498888  0.494567  1
  F  F2  1  0.919565  0.533056  0.551512  1
  F  F3  1  0.477935  0.537093  0.886558  1
  F  F4  1  0.479715  0.907560  0.545182  1
