# generated using pymatgen
data_U2Si4Mo3
_symmetry_space_group_name_H-M   'P 1'
_cell_length_a   6.74433561
_cell_length_b   6.90538452
_cell_length_c   6.89575977
_cell_angle_alpha   90.00000000
_cell_angle_beta   109.83322557
_cell_angle_gamma   90.00000000
_symmetry_Int_Tables_number   1
_chemical_formula_structural   U2Si4Mo3
_chemical_formula_sum   'U4 Si8 Mo6'
_cell_volume   302.10158461
_cell_formula_units_Z   2
loop_
 _symmetry_equiv_pos_site_id
 _symmetry_equiv_pos_as_xyz
  1  'x, y, z'
loop_
 _atom_site_type_symbol
 _atom_site_label
 _atom_site_symmetry_multiplicity
 _atom_site_fract_x
 _atom_site_fract_y
 _atom_site_fract_z
 _atom_site_occupancy
  U  U0  1  0.443439  0.664175  0.814042  1
  U  U1  1  0.056561  0.164175  0.185958  1
  U  U2  1  0.556561  0.335825  0.185958  1
  U  U3  1  0.943439  0.835825  0.814042  1
  Si  Si4  1  0.133268  0.866984  0.498090  1
  Si  Si5  1  0.366732  0.366984  0.501910  1
  Si  Si6  1  0.866732  0.133016  0.501910  1
  Si  Si7  1  0.633268  0.633016  0.498090  1
  Si  Si8  1  0.871636  0.544156  0.090553  1
  Si  Si9  1  0.628364  0.044156  0.909447  1
  Si  Si10  1  0.371636  0.955844  0.090553  1
  Si  Si11  1  0.128364  0.455844  0.909447  1
  Mo  Mo12  1  0.253998  0.663721  0.243921  1
  Mo  Mo13  1  0.246002  0.163721  0.756079  1
  Mo  Mo14  1  0.000000  0.500000  0.500000  1
  Mo  Mo15  1  0.500000  0.000000  0.500000  1
  Mo  Mo16  1  0.746002  0.336279  0.756079  1
  Mo  Mo17  1  0.753998  0.836279  0.243921  1
