# generated using pymatgen
data_InGeCl3
_symmetry_space_group_name_H-M   'P 1'
_cell_length_a   5.54969268
_cell_length_b   5.54969268
_cell_length_c   5.64770081
_cell_angle_alpha   89.78244868
_cell_angle_beta   90.21755132
_cell_angle_gamma   94.76792078
_symmetry_Int_Tables_number   1
_chemical_formula_structural   InGeCl3
_chemical_formula_sum   'In1 Ge1 Cl3'
_cell_volume   173.33980759
_cell_formula_units_Z   1
loop_
 _symmetry_equiv_pos_site_id
 _symmetry_equiv_pos_as_xyz
  1  'x, y, z'
loop_
 _atom_site_type_symbol
 _atom_site_label
 _atom_site_symmetry_multiplicity
 _atom_site_fract_x
 _atom_site_fract_y
 _atom_site_fract_z
 _atom_site_occupancy
  In  In0  1  0.095025  0.904975  0.918022  1
  Ge  Ge1  1  0.518381  0.481619  0.551022  1
  Cl  Cl2  1  0.479701  0.042202  0.558004  1
  Cl  Cl3  1  0.470813  0.529187  0.971767  1
  Cl  Cl4  1  0.957798  0.520299  0.558004  1
