# generated using pymatgen
data_NbNi3
_symmetry_space_group_name_H-M   'P 1'
_cell_length_a   4.14279441
_cell_length_b   4.14279441
_cell_length_c   4.14279441
_cell_angle_alpha   60.00000000
_cell_angle_beta   60.00000000
_cell_angle_gamma   60.00000000
_symmetry_Int_Tables_number   1
_chemical_formula_structural   NbNi3
_chemical_formula_sum   'Nb1 Ni3'
_cell_volume   50.27651274
_cell_formula_units_Z   1
loop_
 _symmetry_equiv_pos_site_id
 _symmetry_equiv_pos_as_xyz
  1  'x, y, z'
loop_
 _atom_site_type_symbol
 _atom_site_label
 _atom_site_symmetry_multiplicity
 _atom_site_fract_x
 _atom_site_fract_y
 _atom_site_fract_z
 _atom_site_occupancy
  Nb  Nb0  1  0.000000  0.000000  0.000000  1
  Ni  Ni1  1  0.500000  0.500000  0.500000  1
  Ni  Ni2  1  0.750000  0.750000  0.750000  1
  Ni  Ni3  1  0.250000  0.250000  0.250000  1
