# generated using pymatgen
data_YbFeB4
_symmetry_space_group_name_H-M   'P 1'
_cell_length_a   3.32603845
_cell_length_b   5.89117491
_cell_length_c   11.40376114
_cell_angle_alpha   90.00000000
_cell_angle_beta   90.00000000
_cell_angle_gamma   90.00000000
_symmetry_Int_Tables_number   1
_chemical_formula_structural   YbFeB4
_chemical_formula_sum   'Yb4 Fe4 B16'
_cell_volume   223.44842356
_cell_formula_units_Z   4
loop_
 _symmetry_equiv_pos_site_id
 _symmetry_equiv_pos_as_xyz
  1  'x, y, z'
loop_
 _atom_site_type_symbol
 _atom_site_label
 _atom_site_symmetry_multiplicity
 _atom_site_fract_x
 _atom_site_fract_y
 _atom_site_fract_z
 _atom_site_occupancy
  Yb  Yb0  1  0.000000  0.126166  0.650963  1
  Yb  Yb1  1  0.000000  0.873834  0.349037  1
  Yb  Yb2  1  0.000000  0.626166  0.849037  1
  Yb  Yb3  1  0.000000  0.373834  0.150963  1
  Fe  Fe4  1  0.000000  0.126870  0.917100  1
  Fe  Fe5  1  0.000000  0.873130  0.082900  1
  Fe  Fe6  1  0.000000  0.626870  0.582900  1
  Fe  Fe7  1  0.000000  0.373130  0.417100  1
  B  B8  1  0.500000  0.361322  0.967725  1
  B  B9  1  0.500000  0.638678  0.032275  1
  B  B10  1  0.500000  0.861322  0.532275  1
  B  B11  1  0.500000  0.138678  0.467725  1
  B  B12  1  0.500000  0.475261  0.690364  1
  B  B13  1  0.500000  0.524739  0.309636  1
  B  B14  1  0.500000  0.975261  0.809636  1
  B  B15  1  0.500000  0.024739  0.190364  1
  B  B16  1  0.500000  0.279126  0.817456  1
  B  B17  1  0.500000  0.720874  0.182544  1
  B  B18  1  0.500000  0.779126  0.682544  1
  B  B19  1  0.500000  0.220874  0.317456  1
  B  B20  1  0.500000  0.387722  0.546443  1
  B  B21  1  0.500000  0.612278  0.453557  1
  B  B22  1  0.500000  0.887722  0.953557  1
  B  B23  1  0.500000  0.112278  0.046443  1
