# generated using pymatgen
data_RbVP2S7
_symmetry_space_group_name_H-M   'P 1'
_cell_length_a   6.53877990
_cell_length_b   6.53877990
_cell_length_c   6.82840930
_cell_angle_alpha   84.93725267
_cell_angle_beta   95.06274733
_cell_angle_gamma   83.17718621
_symmetry_Int_Tables_number   1
_chemical_formula_structural   RbVP2S7
_chemical_formula_sum   'Rb1 V1 P2 S7'
_cell_volume   287.31225965
_cell_formula_units_Z   1
loop_
 _symmetry_equiv_pos_site_id
 _symmetry_equiv_pos_as_xyz
  1  'x, y, z'
loop_
 _atom_site_type_symbol
 _atom_site_label
 _atom_site_symmetry_multiplicity
 _atom_site_fract_x
 _atom_site_fract_y
 _atom_site_fract_z
 _atom_site_occupancy
  Rb  Rb0  1  0.109136  0.109136  0.500000  1
  V  V1  1  0.498396  0.498396  0.000000  1
  P  P2  1  0.653678  0.051971  0.921172  1
  P  P3  1  0.051971  0.653678  0.078828  1
  S  S4  1  0.983463  0.983463  0.000000  1
  S  S5  1  0.816737  0.542428  0.210771  1
  S  S6  1  0.633257  0.311228  0.730112  1
  S  S7  1  0.311228  0.633257  0.269888  1
  S  S8  1  0.153195  0.526412  0.835837  1
  S  S9  1  0.526412  0.153195  0.164163  1
  S  S10  1  0.542428  0.816737  0.789229  1
