# generated using pymatgen
data_LiAlH4
_symmetry_space_group_name_H-M   'P 1'
_cell_length_a   6.04741820
_cell_length_b   6.04741820
_cell_length_c   6.04741820
_cell_angle_alpha   135.54030182
_cell_angle_beta   135.54030182
_cell_angle_gamma   64.69184214
_symmetry_Int_Tables_number   1
_chemical_formula_structural   LiAlH4
_chemical_formula_sum   'Li2 Al2 H8'
_cell_volume   106.97115782
_cell_formula_units_Z   2
loop_
 _symmetry_equiv_pos_site_id
 _symmetry_equiv_pos_as_xyz
  1  'x, y, z'
loop_
 _atom_site_type_symbol
 _atom_site_label
 _atom_site_symmetry_multiplicity
 _atom_site_fract_x
 _atom_site_fract_y
 _atom_site_fract_z
 _atom_site_occupancy
  Li  Li0  1  0.750000  0.250000  0.500000  1
  Li  Li1  1  0.000000  0.000000  0.000000  1
  Al  Al2  1  0.250000  0.750000  0.500000  1
  Al  Al3  1  0.500000  0.500000  0.000000  1
  H  H4  1  0.080442  0.007647  0.420032  1
  H  H5  1  0.587615  0.660410  0.579968  1
  H  H6  1  0.410410  0.330442  0.572795  1
  H  H7  1  0.757647  0.837615  0.427205  1
  H  H8  1  0.669558  0.242353  0.079968  1
  H  H9  1  0.162385  0.589590  0.920032  1
  H  H10  1  0.339590  0.919558  0.927205  1
  H  H11  1  0.992353  0.412385  0.072795  1
