# generated using pymatgen
data_Hg3C
_symmetry_space_group_name_H-M   'P 1'
_cell_length_a   5.24669508
_cell_length_b   5.24669508
_cell_length_c   5.24669508
_cell_angle_alpha   131.59857537
_cell_angle_beta   131.59857537
_cell_angle_gamma   70.86377716
_symmetry_Int_Tables_number   1
_chemical_formula_structural   Hg3C
_chemical_formula_sum   'Hg3 C1'
_cell_volume   79.10427687
_cell_formula_units_Z   1
loop_
 _symmetry_equiv_pos_site_id
 _symmetry_equiv_pos_as_xyz
  1  'x, y, z'
loop_
 _atom_site_type_symbol
 _atom_site_label
 _atom_site_symmetry_multiplicity
 _atom_site_fract_x
 _atom_site_fract_y
 _atom_site_fract_z
 _atom_site_occupancy
  Hg  Hg0  1  0.250000  0.750000  0.500000  1
  Hg  Hg1  1  0.750000  0.250000  0.500000  1
  Hg  Hg2  1  0.500000  0.500000  0.000000  1
  C  C3  1  0.000000  0.000000  0.000000  1
