# generated using pymatgen
data_HoSb3
_symmetry_space_group_name_H-M   'P 1'
_cell_length_a   6.54351725
_cell_length_b   6.54351725
_cell_length_c   5.87018773
_cell_angle_alpha   90.00000000
_cell_angle_beta   90.00000000
_cell_angle_gamma   120.00000000
_symmetry_Int_Tables_number   1
_chemical_formula_structural   HoSb3
_chemical_formula_sum   'Ho2 Sb6'
_cell_volume   217.67328211
_cell_formula_units_Z   2
loop_
 _symmetry_equiv_pos_site_id
 _symmetry_equiv_pos_as_xyz
  1  'x, y, z'
loop_
 _atom_site_type_symbol
 _atom_site_label
 _atom_site_symmetry_multiplicity
 _atom_site_fract_x
 _atom_site_fract_y
 _atom_site_fract_z
 _atom_site_occupancy
  Ho  Ho0  1  0.333333  0.666667  0.750000  1
  Ho  Ho1  1  0.666667  0.333333  0.250000  1
  Sb  Sb2  1  0.175186  0.350372  0.250000  1
  Sb  Sb3  1  0.649628  0.824814  0.250000  1
  Sb  Sb4  1  0.175186  0.824814  0.250000  1
  Sb  Sb5  1  0.824814  0.649628  0.750000  1
  Sb  Sb6  1  0.350372  0.175186  0.750000  1
  Sb  Sb7  1  0.824814  0.175186  0.750000  1
