# generated using pymatgen
data_TlGeBr3
_symmetry_space_group_name_H-M   'P 1'
_cell_length_a   5.56048461
_cell_length_b   5.56048461
_cell_length_c   5.55133026
_cell_angle_alpha   89.10866465
_cell_angle_beta   90.89133535
_cell_angle_gamma   90.70443561
_symmetry_Int_Tables_number   1
_chemical_formula_structural   TlGeBr3
_chemical_formula_sum   'Tl1 Ge1 Br3'
_cell_volume   171.58751382
_cell_formula_units_Z   1
loop_
 _symmetry_equiv_pos_site_id
 _symmetry_equiv_pos_as_xyz
  1  'x, y, z'
loop_
 _atom_site_type_symbol
 _atom_site_label
 _atom_site_symmetry_multiplicity
 _atom_site_fract_x
 _atom_site_fract_y
 _atom_site_fract_z
 _atom_site_occupancy
  Tl  Tl0  1  0.992846  0.007154  0.994604  1
  Ge  Ge1  1  0.480415  0.519585  0.531325  1
  Br  Br2  1  0.499854  0.991841  0.516396  1
  Br  Br3  1  0.507215  0.492785  0.004783  1
  Br  Br4  1  0.008159  0.500146  0.516396  1
