# generated using pymatgen
data_Sr2GaCuSO3
_symmetry_space_group_name_H-M   'P 1'
_cell_length_a   3.90318302
_cell_length_b   3.90318302
_cell_length_c   15.83843985
_cell_angle_alpha   90.00000000
_cell_angle_beta   90.00000000
_cell_angle_gamma   90.00000000
_symmetry_Int_Tables_number   1
_chemical_formula_structural   Sr2GaCuSO3
_chemical_formula_sum   'Sr4 Ga2 Cu2 S2 O6'
_cell_volume   241.29606034
_cell_formula_units_Z   2
loop_
 _symmetry_equiv_pos_site_id
 _symmetry_equiv_pos_as_xyz
  1  'x, y, z'
loop_
 _atom_site_type_symbol
 _atom_site_label
 _atom_site_symmetry_multiplicity
 _atom_site_fract_x
 _atom_site_fract_y
 _atom_site_fract_z
 _atom_site_occupancy
  Sr  Sr0  1  0.500000  0.000000  0.816746  1
  Sr  Sr1  1  0.000000  0.500000  0.183254  1
  Sr  Sr2  1  0.000000  0.500000  0.413193  1
  Sr  Sr3  1  0.500000  0.000000  0.586807  1
  Ga  Ga4  1  0.000000  0.500000  0.688753  1
  Ga  Ga5  1  0.500000  0.000000  0.311247  1
  Cu  Cu6  1  0.500000  0.500000  0.000000  1
  Cu  Cu7  1  0.000000  0.000000  0.000000  1
  S  S8  1  0.000000  0.500000  0.910334  1
  S  S9  1  0.500000  0.000000  0.089666  1
  O  O10  1  0.000000  0.500000  0.568876  1
  O  O11  1  0.500000  0.000000  0.431124  1
  O  O12  1  0.500000  0.500000  0.712754  1
  O  O13  1  0.500000  0.500000  0.287246  1
  O  O14  1  0.000000  0.000000  0.712754  1
  O  O15  1  0.000000  0.000000  0.287246  1
