# generated using pymatgen
data_K2Dy4Cu4Se9
_symmetry_space_group_name_H-M   'P 1'
_cell_length_a   7.45518547
_cell_length_b   7.45518547
_cell_length_c   16.51981406
_cell_angle_alpha   71.41021744
_cell_angle_beta   108.58978256
_cell_angle_gamma   147.95980024
_symmetry_Int_Tables_number   1
_chemical_formula_structural   K2Dy4Cu4Se9
_chemical_formula_sum   'K2 Dy4 Cu4 Se9'
_cell_volume   459.52875046
_cell_formula_units_Z   1
loop_
 _symmetry_equiv_pos_site_id
 _symmetry_equiv_pos_as_xyz
  1  'x, y, z'
loop_
 _atom_site_type_symbol
 _atom_site_label
 _atom_site_symmetry_multiplicity
 _atom_site_fract_x
 _atom_site_fract_y
 _atom_site_fract_z
 _atom_site_occupancy
  K  K0  1  0.967287  0.032713  0.730593  1
  K  K1  1  0.032713  0.967287  0.269407  1
  Dy  Dy2  1  0.768184  0.231816  0.896846  1
  Dy  Dy3  1  0.655035  0.344965  0.556263  1
  Dy  Dy4  1  0.344965  0.655035  0.443737  1
  Dy  Dy5  1  0.231816  0.768184  0.103154  1
  Cu  Cu6  1  0.575635  0.424365  0.971343  1
  Cu  Cu7  1  0.240205  0.759795  0.728642  1
  Cu  Cu8  1  0.759795  0.240205  0.271358  1
  Cu  Cu9  1  0.424365  0.575635  0.028657  1
  Se  Se10  1  0.135182  0.864818  0.922031  1
  Se  Se11  1  0.392934  0.607066  0.870293  1
  Se  Se12  1  0.644338  0.355662  0.722870  1
  Se  Se13  1  0.301424  0.698576  0.604305  1
  Se  Se14  1  0.000000  0.000000  0.500000  1
  Se  Se15  1  0.698576  0.301424  0.395695  1
  Se  Se16  1  0.355662  0.644338  0.277130  1
  Se  Se17  1  0.607066  0.392934  0.129707  1
  Se  Se18  1  0.864818  0.135182  0.077969  1
