# generated using pymatgen
data_Nd2IrAu
_symmetry_space_group_name_H-M   'P 1'
_cell_length_a   5.13465230
_cell_length_b   5.13465230
_cell_length_c   5.13465230
_cell_angle_alpha   60.00000000
_cell_angle_beta   60.00000000
_cell_angle_gamma   60.00000000
_symmetry_Int_Tables_number   1
_chemical_formula_structural   Nd2IrAu
_chemical_formula_sum   'Nd2 Ir1 Au1'
_cell_volume   95.72340140
_cell_formula_units_Z   1
loop_
 _symmetry_equiv_pos_site_id
 _symmetry_equiv_pos_as_xyz
  1  'x, y, z'
loop_
 _atom_site_type_symbol
 _atom_site_label
 _atom_site_symmetry_multiplicity
 _atom_site_fract_x
 _atom_site_fract_y
 _atom_site_fract_z
 _atom_site_occupancy
  Nd  Nd0  1  0.750000  0.750000  0.750000  1
  Nd  Nd1  1  0.250000  0.250000  0.250000  1
  Ir  Ir2  1  0.000000  0.000000  0.000000  1
  Au  Au3  1  0.500000  0.500000  0.500000  1
