# generated using pymatgen
data_CaTlCl3
_symmetry_space_group_name_H-M   'P 1'
_cell_length_a   7.23835334
_cell_length_b   7.23835334
_cell_length_c   10.34836494
_cell_angle_alpha   90.00000000
_cell_angle_beta   90.00000000
_cell_angle_gamma   146.87310145
_symmetry_Int_Tables_number   1
_chemical_formula_structural   CaTlCl3
_chemical_formula_sum   'Ca2 Tl2 Cl6'
_cell_volume   296.30408121
_cell_formula_units_Z   2
loop_
 _symmetry_equiv_pos_site_id
 _symmetry_equiv_pos_as_xyz
  1  'x, y, z'
loop_
 _atom_site_type_symbol
 _atom_site_label
 _atom_site_symmetry_multiplicity
 _atom_site_fract_x
 _atom_site_fract_y
 _atom_site_fract_z
 _atom_site_occupancy
  Ca  Ca0  1  0.000000  0.000000  0.000000  1
  Ca  Ca1  1  0.000000  0.000000  0.500000  1
  Tl  Tl2  1  0.741202  0.258798  0.750000  1
  Tl  Tl3  1  0.258798  0.741202  0.250000  1
  Cl  Cl4  1  0.628704  0.371296  0.050241  1
  Cl  Cl5  1  0.371296  0.628704  0.550241  1
  Cl  Cl6  1  0.628704  0.371296  0.449759  1
  Cl  Cl7  1  0.371296  0.628704  0.949759  1
  Cl  Cl8  1  0.068898  0.931102  0.750000  1
  Cl  Cl9  1  0.931102  0.068898  0.250000  1
