# generated using pymatgen
data_Sm2Fe17C3
_symmetry_space_group_name_H-M   'P 1'
_cell_length_a   6.52577312
_cell_length_b   6.52577312
_cell_length_c   6.52577312
_cell_angle_alpha   83.57628409
_cell_angle_beta   83.57628409
_cell_angle_gamma   83.57628409
_symmetry_Int_Tables_number   1
_chemical_formula_structural   Sm2Fe17C3
_chemical_formula_sum   'Sm2 Fe17 C3'
_cell_volume   273.03332294
_cell_formula_units_Z   1
loop_
 _symmetry_equiv_pos_site_id
 _symmetry_equiv_pos_as_xyz
  1  'x, y, z'
loop_
 _atom_site_type_symbol
 _atom_site_label
 _atom_site_symmetry_multiplicity
 _atom_site_fract_x
 _atom_site_fract_y
 _atom_site_fract_z
 _atom_site_occupancy
  Sm  Sm0  1  0.343442  0.343442  0.343442  1
  Sm  Sm1  1  0.656558  0.656558  0.656558  1
  Fe  Fe2  1  0.500000  0.000000  0.000000  1
  Fe  Fe3  1  0.000000  0.000000  0.500000  1
  Fe  Fe4  1  1.000000  0.500000  0.000000  1
  Fe  Fe5  1  0.000000  0.716120  0.283880  1
  Fe  Fe6  1  0.716120  0.283880  0.000000  1
  Fe  Fe7  1  0.283880  0.000000  0.716120  1
  Fe  Fe8  1  0.283880  0.716120  0.000000  1
  Fe  Fe9  1  0.716120  0.000000  0.283880  1
  Fe  Fe10  1  0.000000  0.283880  0.716120  1
  Fe  Fe11  1  0.143024  0.657554  0.657554  1
  Fe  Fe12  1  0.657554  0.657554  0.143024  1
  Fe  Fe13  1  0.657554  0.143024  0.657554  1
  Fe  Fe14  1  0.856976  0.342446  0.342446  1
  Fe  Fe15  1  0.342446  0.342446  0.856976  1
  Fe  Fe16  1  0.342446  0.856976  0.342446  1
  Fe  Fe17  1  0.094937  0.094937  0.094937  1
  Fe  Fe18  1  0.905063  0.905063  0.905063  1
  C  C19  1  0.000000  0.500000  0.500000  1
  C  C20  1  0.500000  0.500000  0.000000  1
  C  C21  1  0.500000  0.000000  0.500000  1
