# generated using pymatgen
data_NiH2SeO5
_symmetry_space_group_name_H-M   'P 1'
_cell_length_a   5.16394352
_cell_length_b   5.16394352
_cell_length_c   7.91190087
_cell_angle_alpha   72.22986131
_cell_angle_beta   107.77013869
_cell_angle_gamma   91.24954626
_symmetry_Int_Tables_number   1
_chemical_formula_structural   NiH2SeO5
_chemical_formula_sum   'Ni2 H4 Se2 O10'
_cell_volume   190.73613116
_cell_formula_units_Z   2
loop_
 _symmetry_equiv_pos_site_id
 _symmetry_equiv_pos_as_xyz
  1  'x, y, z'
loop_
 _atom_site_type_symbol
 _atom_site_label
 _atom_site_symmetry_multiplicity
 _atom_site_fract_x
 _atom_site_fract_y
 _atom_site_fract_z
 _atom_site_occupancy
  Ni  Ni0  1  0.000000  0.000000  0.000000  1
  Ni  Ni1  1  0.000000  1.000000  0.500000  1
  H  H2  1  0.268337  0.491517  0.002068  1
  H  H3  1  0.491517  0.268337  0.497932  1
  H  H4  1  0.508483  0.731663  0.502068  1
  H  H5  1  0.731663  0.508483  0.997932  1
  Se  Se6  1  0.690214  0.690214  0.250000  1
  Se  Se7  1  0.309786  0.309786  0.750000  1
  O  O8  1  0.829259  0.632851  0.067507  1
  O  O9  1  0.366737  0.745217  0.108829  1
  O  O10  1  0.931985  0.931985  0.250000  1
  O  O11  1  0.745217  0.366737  0.391171  1
  O  O12  1  0.632851  0.829259  0.432493  1
  O  O13  1  0.367149  0.170741  0.567507  1
  O  O14  1  0.254783  0.633263  0.608829  1
  O  O15  1  0.068015  0.068015  0.750000  1
  O  O16  1  0.633263  0.254783  0.891171  1
  O  O17  1  0.170741  0.367149  0.932493  1
