# generated using pymatgen
data_LaTcN3
_symmetry_space_group_name_H-M   'P 1'
_cell_length_a   5.70891113
_cell_length_b   3.55291160
_cell_length_c   7.46362371
_cell_angle_alpha   90.00000000
_cell_angle_beta   109.70854397
_cell_angle_gamma   90.00000000
_symmetry_Int_Tables_number   1
_chemical_formula_structural   LaTcN3
_chemical_formula_sum   'La2 Tc2 N6'
_cell_volume   142.51840832
_cell_formula_units_Z   2
loop_
 _symmetry_equiv_pos_site_id
 _symmetry_equiv_pos_as_xyz
  1  'x, y, z'
loop_
 _atom_site_type_symbol
 _atom_site_label
 _atom_site_symmetry_multiplicity
 _atom_site_fract_x
 _atom_site_fract_y
 _atom_site_fract_z
 _atom_site_occupancy
  La  La0  1  0.323123  0.000000  0.190151  1
  La  La1  1  0.676877  0.000000  0.809849  1
  Tc  Tc2  1  0.178067  0.500000  0.801076  1
  Tc  Tc3  1  0.821933  0.500000  0.198924  1
  N  N4  1  0.204911  0.500000  0.402651  1
  N  N5  1  0.795089  0.500000  0.597349  1
  N  N6  1  0.253411  0.500000  0.578312  1
  N  N7  1  0.500000  0.500000  0.000000  1
  N  N8  1  0.746589  0.500000  0.421688  1
  N  N9  1  0.000000  0.500000  0.000000  1
