# generated using pymatgen
data_Y2Al3Si2
_symmetry_space_group_name_H-M   'P 1'
_cell_length_a   5.49538446
_cell_length_b   5.49538446
_cell_length_c   6.64007390
_cell_angle_alpha   79.70260735
_cell_angle_beta   100.29739265
_cell_angle_gamma   136.87429689
_symmetry_Int_Tables_number   1
_chemical_formula_structural   Y2Al3Si2
_chemical_formula_sum   'Y2 Al3 Si2'
_cell_volume   134.52333142
_cell_formula_units_Z   1
loop_
 _symmetry_equiv_pos_site_id
 _symmetry_equiv_pos_as_xyz
  1  'x, y, z'
loop_
 _atom_site_type_symbol
 _atom_site_label
 _atom_site_symmetry_multiplicity
 _atom_site_fract_x
 _atom_site_fract_y
 _atom_site_fract_z
 _atom_site_occupancy
  Y  Y0  1  0.620090  0.379910  0.322436  1
  Y  Y1  1  0.379910  0.620090  0.677564  1
  Al  Al2  1  0.305584  0.694416  0.133393  1
  Al  Al3  1  0.000000  0.000000  0.000000  1
  Al  Al4  1  0.694416  0.305584  0.866607  1
  Si  Si5  1  0.092690  0.907310  0.640554  1
  Si  Si6  1  0.907310  0.092690  0.359446  1
