# generated using pymatgen
data_Sr3MnN3
_symmetry_space_group_name_H-M   'P 1'
_cell_length_a   7.73377271
_cell_length_b   7.73377271
_cell_length_c   5.26876160
_cell_angle_alpha   90.00000000
_cell_angle_beta   90.00000000
_cell_angle_gamma   120.00000000
_symmetry_Int_Tables_number   1
_chemical_formula_structural   Sr3MnN3
_chemical_formula_sum   'Sr6 Mn2 N6'
_cell_volume   272.91159557
_cell_formula_units_Z   2
loop_
 _symmetry_equiv_pos_site_id
 _symmetry_equiv_pos_as_xyz
  1  'x, y, z'
loop_
 _atom_site_type_symbol
 _atom_site_label
 _atom_site_symmetry_multiplicity
 _atom_site_fract_x
 _atom_site_fract_y
 _atom_site_fract_z
 _atom_site_occupancy
  Sr  Sr0  1  0.639167  0.724542  0.750000  1
  Sr  Sr1  1  0.914625  0.639167  0.250000  1
  Sr  Sr2  1  0.724542  0.085375  0.250000  1
  Sr  Sr3  1  0.275458  0.914625  0.750000  1
  Sr  Sr4  1  0.085375  0.360833  0.750000  1
  Sr  Sr5  1  0.360833  0.275458  0.250000  1
  Mn  Mn6  1  0.333333  0.666667  0.250000  1
  Mn  Mn7  1  0.666667  0.333333  0.750000  1
  N  N8  1  0.879203  0.568693  0.750000  1
  N  N9  1  0.310511  0.879203  0.250000  1
  N  N10  1  0.568693  0.689489  0.250000  1
  N  N11  1  0.431307  0.310511  0.750000  1
  N  N12  1  0.689489  0.120797  0.750000  1
  N  N13  1  0.120797  0.431307  0.250000  1
