# generated using pymatgen
data_SiHg3
_symmetry_space_group_name_H-M   'P 1'
_cell_length_a   6.99804964
_cell_length_b   6.99804964
_cell_length_c   4.50899821
_cell_angle_alpha   90.00000000
_cell_angle_beta   90.00000000
_cell_angle_gamma   120.00000000
_symmetry_Int_Tables_number   1
_chemical_formula_structural   SiHg3
_chemical_formula_sum   'Si2 Hg6'
_cell_volume   191.23383386
_cell_formula_units_Z   2
loop_
 _symmetry_equiv_pos_site_id
 _symmetry_equiv_pos_as_xyz
  1  'x, y, z'
loop_
 _atom_site_type_symbol
 _atom_site_label
 _atom_site_symmetry_multiplicity
 _atom_site_fract_x
 _atom_site_fract_y
 _atom_site_fract_z
 _atom_site_occupancy
  Si  Si0  1  0.333333  0.666667  0.750000  1
  Si  Si1  1  0.666667  0.333333  0.250000  1
  Hg  Hg2  1  0.176257  0.352513  0.250000  1
  Hg  Hg3  1  0.647487  0.823743  0.250000  1
  Hg  Hg4  1  0.176257  0.823743  0.250000  1
  Hg  Hg5  1  0.823743  0.647487  0.750000  1
  Hg  Hg6  1  0.352513  0.176257  0.750000  1
  Hg  Hg7  1  0.823743  0.176257  0.750000  1
