# generated using pymatgen
data_TmFeGe2
_symmetry_space_group_name_H-M   'P 1'
_cell_length_a   8.61201711
_cell_length_b   8.61201711
_cell_length_c   4.16508373
_cell_angle_alpha   90.00000000
_cell_angle_beta   90.00000000
_cell_angle_gamma   152.67197115
_symmetry_Int_Tables_number   1
_chemical_formula_structural   TmFeGe2
_chemical_formula_sum   'Tm2 Fe2 Ge4'
_cell_volume   141.81620422
_cell_formula_units_Z   2
loop_
 _symmetry_equiv_pos_site_id
 _symmetry_equiv_pos_as_xyz
  1  'x, y, z'
loop_
 _atom_site_type_symbol
 _atom_site_label
 _atom_site_symmetry_multiplicity
 _atom_site_fract_x
 _atom_site_fract_y
 _atom_site_fract_z
 _atom_site_occupancy
  Tm  Tm0  1  0.890412  0.109588  0.750000  1
  Tm  Tm1  1  0.109588  0.890412  0.250000  1
  Fe  Fe2  1  0.678903  0.321097  0.750000  1
  Fe  Fe3  1  0.321097  0.678903  0.250000  1
  Ge  Ge4  1  0.544286  0.455714  0.750000  1
  Ge  Ge5  1  0.455714  0.544286  0.250000  1
  Ge  Ge6  1  0.252336  0.747664  0.750000  1
  Ge  Ge7  1  0.747664  0.252336  0.250000  1
