# generated using pymatgen
data_Na2P3HO9
_symmetry_space_group_name_H-M   'P 1'
_cell_length_a   6.78857874
_cell_length_b   7.26910374
_cell_length_c   7.85666029
_cell_angle_alpha   92.31762186
_cell_angle_beta   102.52578152
_cell_angle_gamma   90.00330666
_symmetry_Int_Tables_number   1
_chemical_formula_structural   Na2P3HO9
_chemical_formula_sum   'Na4 P6 H2 O18'
_cell_volume   378.14874271
_cell_formula_units_Z   2
loop_
 _symmetry_equiv_pos_site_id
 _symmetry_equiv_pos_as_xyz
  1  'x, y, z'
loop_
 _atom_site_type_symbol
 _atom_site_label
 _atom_site_symmetry_multiplicity
 _atom_site_fract_x
 _atom_site_fract_y
 _atom_site_fract_z
 _atom_site_occupancy
  Na  Na0  1  0.584931  0.642941  0.845393  1
  Na  Na1  1  0.415069  0.357059  0.154607  1
  Na  Na2  1  0.087910  0.653501  0.853234  1
  Na  Na3  1  0.912090  0.346499  0.146766  1
  P  P4  1  0.095436  0.161527  0.777631  1
  P  P5  1  0.904564  0.838473  0.222369  1
  P  P6  1  0.536657  0.169769  0.776014  1
  P  P7  1  0.463343  0.830231  0.223986  1
  P  P8  1  0.766873  0.362230  0.552209  1
  P  P9  1  0.233127  0.637770  0.447791  1
  H  H10  1  0.796386  0.979667  0.821616  1
  H  H11  1  0.203614  0.020333  0.178384  1
  O  O12  1  0.124836  0.310723  0.918872  1
  O  O13  1  0.875164  0.689277  0.081128  1
  O  O14  1  0.585158  0.315214  0.918968  1
  O  O15  1  0.414842  0.684786  0.081032  1
  O  O16  1  0.639758  0.980349  0.820848  1
  O  O17  1  0.360242  0.019651  0.179152  1
  O  O18  1  0.009052  0.978403  0.811379  1
  O  O19  1  0.990948  0.021597  0.188621  1
  O  O20  1  0.305259  0.115658  0.715849  1
  O  O21  1  0.694741  0.884342  0.284151  1
  O  O22  1  0.965217  0.231419  0.595517  1
  O  O23  1  0.034783  0.768581  0.404483  1
  O  O24  1  0.589765  0.227343  0.597978  1
  O  O25  1  0.410235  0.772657  0.402022  1
  O  O26  1  0.793931  0.527994  0.673886  1
  O  O27  1  0.206069  0.472006  0.326114  1
  O  O28  1  0.284279  0.622608  0.640627  1
  O  O29  1  0.715721  0.377392  0.359373  1
