# generated using pymatgen
data_Ba2Si3Ag
_symmetry_space_group_name_H-M   'P 1'
_cell_length_a   12.48700426
_cell_length_b   10.87550061
_cell_length_c   8.67036560
_cell_angle_alpha   78.52236770
_cell_angle_beta   58.59757750
_cell_angle_gamma   42.88005480
_symmetry_Int_Tables_number   1
_chemical_formula_structural   Ba2Si3Ag
_chemical_formula_sum   'Ba8 Si12 Ag4'
_cell_volume   649.09783388
_cell_formula_units_Z   4
loop_
 _symmetry_equiv_pos_site_id
 _symmetry_equiv_pos_as_xyz
  1  'x, y, z'
loop_
 _atom_site_type_symbol
 _atom_site_label
 _atom_site_symmetry_multiplicity
 _atom_site_fract_x
 _atom_site_fract_y
 _atom_site_fract_z
 _atom_site_occupancy
  Ba  Ba0  1  0.374412  0.374412  0.125588  1
  Ba  Ba1  1  0.124412  0.124412  0.875588  1
  Ba  Ba2  1  0.875588  0.875588  0.124412  1
  Ba  Ba3  1  0.125588  0.125588  0.374412  1
  Ba  Ba4  1  0.375797  0.375797  0.624203  1
  Ba  Ba5  1  0.624203  0.624203  0.375797  1
  Ba  Ba6  1  0.874203  0.874203  0.625797  1
  Ba  Ba7  1  0.625797  0.625797  0.874203  1
  Si  Si8  1  0.184318  0.821611  0.656338  1
  Si  Si9  1  0.337732  0.656338  0.821611  1
  Si  Si10  1  0.656338  0.337732  0.184318  1
  Si  Si11  1  0.821611  0.184318  0.337732  1
  Si  Si12  1  0.065682  0.428389  0.593662  1
  Si  Si13  1  0.912268  0.593662  0.428389  1
  Si  Si14  1  0.593662  0.912268  0.065682  1
  Si  Si15  1  0.590378  0.909622  0.590378  1
  Si  Si16  1  0.340378  0.659622  0.340378  1
  Si  Si17  1  0.659622  0.340378  0.659622  1
  Si  Si18  1  0.909622  0.590378  0.909622  1
  Si  Si19  1  0.428389  0.065682  0.912268  1
  Ag  Ag20  1  0.416967  0.083033  0.416967  1
  Ag  Ag21  1  0.833033  0.166967  0.833033  1
  Ag  Ag22  1  0.083033  0.416967  0.083033  1
  Ag  Ag23  1  0.166967  0.833033  0.166967  1
