# generated using pymatgen
data_MgMnPt2
_symmetry_space_group_name_H-M   'P 1'
_cell_length_a   4.43849017
_cell_length_b   4.43849017
_cell_length_c   4.43849017
_cell_angle_alpha   60.00000000
_cell_angle_beta   60.00000000
_cell_angle_gamma   60.00000000
_symmetry_Int_Tables_number   1
_chemical_formula_structural   MgMnPt2
_chemical_formula_sum   'Mg1 Mn1 Pt2'
_cell_volume   61.82879602
_cell_formula_units_Z   1
loop_
 _symmetry_equiv_pos_site_id
 _symmetry_equiv_pos_as_xyz
  1  'x, y, z'
loop_
 _atom_site_type_symbol
 _atom_site_label
 _atom_site_symmetry_multiplicity
 _atom_site_fract_x
 _atom_site_fract_y
 _atom_site_fract_z
 _atom_site_occupancy
  Mg  Mg0  1  0.500000  0.500000  0.500000  1
  Mn  Mn1  1  0.000000  0.000000  0.000000  1
  Pt  Pt2  1  0.750000  0.750000  0.750000  1
  Pt  Pt3  1  0.250000  0.250000  0.250000  1
