# generated using pymatgen
data_CaTcN3
_symmetry_space_group_name_H-M   'P 1'
_cell_length_a   7.39894012
_cell_length_b   7.39894012
_cell_length_c   6.23939651
_cell_angle_alpha   74.76614324
_cell_angle_beta   105.23385676
_cell_angle_gamma   95.86921237
_symmetry_Int_Tables_number   1
_chemical_formula_structural   CaTcN3
_chemical_formula_sum   'Ca4 Tc4 N12'
_cell_volume   317.78608054
_cell_formula_units_Z   4
loop_
 _symmetry_equiv_pos_site_id
 _symmetry_equiv_pos_as_xyz
  1  'x, y, z'
loop_
 _atom_site_type_symbol
 _atom_site_label
 _atom_site_symmetry_multiplicity
 _atom_site_fract_x
 _atom_site_fract_y
 _atom_site_fract_z
 _atom_site_occupancy
  Ca  Ca0  1  0.304220  0.304220  0.750000  1
  Ca  Ca1  1  0.086160  0.086160  0.250000  1
  Ca  Ca2  1  0.913840  0.913840  0.750000  1
  Ca  Ca3  1  0.695780  0.695780  0.250000  1
  Tc  Tc4  1  0.799870  0.378110  0.730390  1
  Tc  Tc5  1  0.621890  0.200130  0.230390  1
  Tc  Tc6  1  0.378110  0.799870  0.769610  1
  Tc  Tc7  1  0.200130  0.621890  0.269610  1
  N  N8  1  0.653580  0.351720  0.444670  1
  N  N9  1  0.227720  0.992460  0.662010  1
  N  N10  1  0.648280  0.346420  0.944670  1
  N  N11  1  0.351720  0.653580  0.055330  1
  N  N12  1  0.610680  0.878440  0.829750  1
  N  N13  1  0.007540  0.772280  0.162010  1
  N  N14  1  0.346420  0.648280  0.555330  1
  N  N15  1  0.992460  0.227720  0.837990  1
  N  N16  1  0.772280  0.007540  0.337990  1
  N  N17  1  0.121560  0.389320  0.329750  1
  N  N18  1  0.389320  0.121560  0.170250  1
  N  N19  1  0.878440  0.610680  0.670250  1
