# generated using pymatgen
data_BAs
_symmetry_space_group_name_H-M   'P 1'
_cell_length_a   3.39093247
_cell_length_b   3.39093247
_cell_length_c   5.60954605
_cell_angle_alpha   90.00000000
_cell_angle_beta   90.00000000
_cell_angle_gamma   120.00000000
_symmetry_Int_Tables_number   1
_chemical_formula_structural   BAs
_chemical_formula_sum   'B2 As2'
_cell_volume   55.85944694
_cell_formula_units_Z   2
loop_
 _symmetry_equiv_pos_site_id
 _symmetry_equiv_pos_as_xyz
  1  'x, y, z'
loop_
 _atom_site_type_symbol
 _atom_site_label
 _atom_site_symmetry_multiplicity
 _atom_site_fract_x
 _atom_site_fract_y
 _atom_site_fract_z
 _atom_site_occupancy
  B  B0  1  0.333333  0.666667  0.374676  1
  B  B1  1  0.666667  0.333333  0.874676  1
  As  As2  1  0.333333  0.666667  0.000323  1
  As  As3  1  0.666667  0.333333  0.500323  1
