# generated using pymatgen
data_Sm2Au2O5
_symmetry_space_group_name_H-M   'P 1'
_cell_length_a   4.21126641
_cell_length_b   4.21126641
_cell_length_c   7.14553982
_cell_angle_alpha   90.00000000
_cell_angle_beta   90.00000000
_cell_angle_gamma   90.00000000
_symmetry_Int_Tables_number   1
_chemical_formula_structural   Sm2Au2O5
_chemical_formula_sum   'Sm2 Au2 O5'
_cell_volume   126.72446791
_cell_formula_units_Z   1
loop_
 _symmetry_equiv_pos_site_id
 _symmetry_equiv_pos_as_xyz
  1  'x, y, z'
loop_
 _atom_site_type_symbol
 _atom_site_label
 _atom_site_symmetry_multiplicity
 _atom_site_fract_x
 _atom_site_fract_y
 _atom_site_fract_z
 _atom_site_occupancy
  Sm  Sm0  1  0.000000  0.000000  0.000000  1
  Sm  Sm1  1  0.000000  0.000000  0.500000  1
  Au  Au2  1  0.500000  0.500000  0.192279  1
  Au  Au3  1  0.500000  0.500000  0.807721  1
  O  O4  1  0.500000  0.000000  0.227134  1
  O  O5  1  0.500000  0.000000  0.772866  1
  O  O6  1  0.500000  0.500000  0.500000  1
  O  O7  1  0.000000  0.500000  0.227134  1
  O  O8  1  0.000000  0.500000  0.772866  1
