# generated using pymatgen
data_CaTcO3
_symmetry_space_group_name_H-M   'P 1'
_cell_length_a   3.93786537
_cell_length_b   3.93786537
_cell_length_c   3.93870942
_cell_angle_alpha   89.86167714
_cell_angle_beta   90.13832286
_cell_angle_gamma   90.12472228
_symmetry_Int_Tables_number   1
_chemical_formula_structural   CaTcO3
_chemical_formula_sum   'Ca1 Tc1 O3'
_cell_volume   61.07621497
_cell_formula_units_Z   1
loop_
 _symmetry_equiv_pos_site_id
 _symmetry_equiv_pos_as_xyz
  1  'x, y, z'
loop_
 _atom_site_type_symbol
 _atom_site_label
 _atom_site_symmetry_multiplicity
 _atom_site_fract_x
 _atom_site_fract_y
 _atom_site_fract_z
 _atom_site_occupancy
  Ca  Ca0  1  0.995082  0.004918  0.001653  1
  Tc  Tc1  1  0.498210  0.501790  0.513201  1
  O  O2  1  0.497044  0.001610  0.516587  1
  O  O3  1  0.500773  0.499227  0.013713  1
  O  O4  1  0.998390  0.502956  0.516587  1
