# generated using pymatgen
data_La(BIr)4
_symmetry_space_group_name_H-M   'P 1'
_cell_length_a   7.74708754
_cell_length_b   7.74708754
_cell_length_c   3.99082727
_cell_angle_alpha   90.00000000
_cell_angle_beta   90.00000000
_cell_angle_gamma   90.00000000
_symmetry_Int_Tables_number   1
_chemical_formula_structural   La(BIr)4
_chemical_formula_sum   'La2 B8 Ir8'
_cell_volume   239.51893832
_cell_formula_units_Z   2
loop_
 _symmetry_equiv_pos_site_id
 _symmetry_equiv_pos_as_xyz
  1  'x, y, z'
loop_
 _atom_site_type_symbol
 _atom_site_label
 _atom_site_symmetry_multiplicity
 _atom_site_fract_x
 _atom_site_fract_y
 _atom_site_fract_z
 _atom_site_occupancy
  La  La0  1  0.500000  0.500000  0.000000  1
  La  La1  1  0.000000  0.000000  0.500000  1
  B  B2  1  0.658512  0.779745  0.606830  1
  B  B3  1  0.158512  0.279745  0.893170  1
  B  B4  1  0.279745  0.841488  0.106830  1
  B  B5  1  0.720255  0.158512  0.106830  1
  B  B6  1  0.341488  0.220255  0.606830  1
  B  B7  1  0.841488  0.720255  0.893170  1
  B  B8  1  0.220255  0.658512  0.393170  1
  B  B9  1  0.779745  0.341488  0.393170  1
  Ir  Ir10  1  0.341445  0.109604  0.106874  1
  Ir  Ir11  1  0.658555  0.890396  0.106874  1
  Ir  Ir12  1  0.609604  0.158555  0.606874  1
  Ir  Ir13  1  0.109604  0.658555  0.893126  1
  Ir  Ir14  1  0.158555  0.390396  0.393126  1
  Ir  Ir15  1  0.841445  0.609604  0.393126  1
  Ir  Ir16  1  0.890396  0.341445  0.893126  1
  Ir  Ir17  1  0.390396  0.841445  0.606874  1
