# generated using pymatgen
data_RbSrCl3
_symmetry_space_group_name_H-M   'P 1'
_cell_length_a   5.70254728
_cell_length_b   5.70254728
_cell_length_c   5.69859206
_cell_angle_alpha   89.92488326
_cell_angle_beta   90.07511674
_cell_angle_gamma   89.93482591
_symmetry_Int_Tables_number   1
_chemical_formula_structural   RbSrCl3
_chemical_formula_sum   'Rb1 Sr1 Cl3'
_cell_volume   185.31233574
_cell_formula_units_Z   1
loop_
 _symmetry_equiv_pos_site_id
 _symmetry_equiv_pos_as_xyz
  1  'x, y, z'
loop_
 _atom_site_type_symbol
 _atom_site_label
 _atom_site_symmetry_multiplicity
 _atom_site_fract_x
 _atom_site_fract_y
 _atom_site_fract_z
 _atom_site_occupancy
  Rb  Rb0  1  0.005568  0.994432  0.001233  1
  Sr  Sr1  1  0.505130  0.494870  0.515229  1
  Cl  Cl2  1  0.504971  0.995960  0.516385  1
  Cl  Cl3  1  0.491880  0.508120  0.015261  1
  Cl  Cl4  1  0.004040  0.495029  0.516385  1
