# generated using pymatgen
data_LuB4Os
_symmetry_space_group_name_H-M   'P 1'
_cell_length_a   3.53731330
_cell_length_b   5.91702445
_cell_length_c   11.44102015
_cell_angle_alpha   90.00000000
_cell_angle_beta   90.00000000
_cell_angle_gamma   90.00000000
_symmetry_Int_Tables_number   1
_chemical_formula_structural   LuB4Os
_chemical_formula_sum   'Lu4 B16 Os4'
_cell_volume   239.46477672
_cell_formula_units_Z   4
loop_
 _symmetry_equiv_pos_site_id
 _symmetry_equiv_pos_as_xyz
  1  'x, y, z'
loop_
 _atom_site_type_symbol
 _atom_site_label
 _atom_site_symmetry_multiplicity
 _atom_site_fract_x
 _atom_site_fract_y
 _atom_site_fract_z
 _atom_site_occupancy
  Lu  Lu0  1  0.500000  0.128835  0.649919  1
  Lu  Lu1  1  0.500000  0.871165  0.350081  1
  Lu  Lu2  1  0.500000  0.628835  0.850081  1
  Lu  Lu3  1  0.500000  0.371165  0.149919  1
  B  B4  1  0.000000  0.476201  0.692756  1
  B  B5  1  0.000000  0.523799  0.307244  1
  B  B6  1  0.000000  0.976201  0.807244  1
  B  B7  1  0.000000  0.023799  0.192756  1
  B  B8  1  0.000000  0.292070  0.813766  1
  B  B9  1  0.000000  0.707930  0.186234  1
  B  B10  1  0.000000  0.792070  0.686234  1
  B  B11  1  0.000000  0.207930  0.313766  1
  B  B12  1  0.000000  0.365160  0.970307  1
  B  B13  1  0.000000  0.634840  0.029693  1
  B  B14  1  0.000000  0.865160  0.529693  1
  B  B15  1  0.000000  0.134840  0.470307  1
  B  B16  1  0.000000  0.386520  0.547636  1
  B  B17  1  0.000000  0.613480  0.452364  1
  B  B18  1  0.000000  0.886520  0.952364  1
  B  B19  1  0.000000  0.113480  0.047636  1
  Os  Os20  1  0.500000  0.142518  0.905767  1
  Os  Os21  1  0.500000  0.857482  0.094233  1
  Os  Os22  1  0.500000  0.642518  0.594233  1
  Os  Os23  1  0.500000  0.357482  0.405767  1
