# generated using pymatgen
data_RbInCl3
_symmetry_space_group_name_H-M   'P 1'
_cell_length_a   5.45233289
_cell_length_b   5.45233289
_cell_length_c   5.45295938
_cell_angle_alpha   89.83798439
_cell_angle_beta   90.16201561
_cell_angle_gamma   89.86080485
_symmetry_Int_Tables_number   1
_chemical_formula_structural   RbInCl3
_chemical_formula_sum   'Rb1 In1 Cl3'
_cell_volume   162.10343878
_cell_formula_units_Z   1
loop_
 _symmetry_equiv_pos_site_id
 _symmetry_equiv_pos_as_xyz
  1  'x, y, z'
loop_
 _atom_site_type_symbol
 _atom_site_label
 _atom_site_symmetry_multiplicity
 _atom_site_fract_x
 _atom_site_fract_y
 _atom_site_fract_z
 _atom_site_occupancy
  Rb  Rb0  1  0.998308  0.001692  0.997136  1
  In  In1  1  0.498450  0.501550  0.485763  1
  Cl  Cl2  1  0.999907  0.504170  0.484106  1
  Cl  Cl3  1  0.504657  0.495343  0.985624  1
  Cl  Cl4  1  0.495830  0.000093  0.484106  1
