# generated using pymatgen
data_HoB4W
_symmetry_space_group_name_H-M   'P 1'
_cell_length_a   3.61903112
_cell_length_b   6.03174424
_cell_length_c   11.65355031
_cell_angle_alpha   90.00000000
_cell_angle_beta   90.00000000
_cell_angle_gamma   90.00000000
_symmetry_Int_Tables_number   1
_chemical_formula_structural   HoB4W
_chemical_formula_sum   'Ho4 B16 W4'
_cell_volume   254.38616678
_cell_formula_units_Z   4
loop_
 _symmetry_equiv_pos_site_id
 _symmetry_equiv_pos_as_xyz
  1  'x, y, z'
loop_
 _atom_site_type_symbol
 _atom_site_label
 _atom_site_symmetry_multiplicity
 _atom_site_fract_x
 _atom_site_fract_y
 _atom_site_fract_z
 _atom_site_occupancy
  Ho  Ho0  1  0.000000  0.127115  0.149590  1
  Ho  Ho1  1  0.000000  0.872885  0.850410  1
  Ho  Ho2  1  0.000000  0.627115  0.350410  1
  Ho  Ho3  1  0.000000  0.372885  0.649590  1
  B  B4  1  0.500000  0.476845  0.193557  1
  B  B5  1  0.500000  0.523155  0.806443  1
  B  B6  1  0.500000  0.976845  0.306443  1
  B  B7  1  0.500000  0.023155  0.693557  1
  B  B8  1  0.500000  0.287796  0.313371  1
  B  B9  1  0.500000  0.712204  0.686629  1
  B  B10  1  0.500000  0.787796  0.186629  1
  B  B11  1  0.500000  0.212204  0.813371  1
  B  B12  1  0.500000  0.366798  0.467928  1
  B  B13  1  0.500000  0.633202  0.532072  1
  B  B14  1  0.500000  0.866798  0.032072  1
  B  B15  1  0.500000  0.133202  0.967928  1
  B  B16  1  0.500000  0.385831  0.047525  1
  B  B17  1  0.500000  0.614169  0.952475  1
  B  B18  1  0.500000  0.885831  0.452475  1
  B  B19  1  0.500000  0.114169  0.547525  1
  W  W20  1  0.000000  0.131124  0.415385  1
  W  W21  1  0.000000  0.868876  0.584615  1
  W  W22  1  0.000000  0.631124  0.084615  1
  W  W23  1  0.000000  0.368876  0.915385  1
