# generated using pymatgen
data_HoP5
_symmetry_space_group_name_H-M   'P 1'
_cell_length_a   4.94189900
_cell_length_b   9.40703393
_cell_length_c   5.34410635
_cell_angle_alpha   90.00000000
_cell_angle_beta   102.25462935
_cell_angle_gamma   90.00000000
_symmetry_Int_Tables_number   1
_chemical_formula_structural   HoP5
_chemical_formula_sum   'Ho2 P10'
_cell_volume   242.77911863
_cell_formula_units_Z   2
loop_
 _symmetry_equiv_pos_site_id
 _symmetry_equiv_pos_as_xyz
  1  'x, y, z'
loop_
 _atom_site_type_symbol
 _atom_site_label
 _atom_site_symmetry_multiplicity
 _atom_site_fract_x
 _atom_site_fract_y
 _atom_site_fract_z
 _atom_site_occupancy
  Ho  Ho0  1  0.996485  0.250000  0.653325  1
  Ho  Ho1  1  0.003515  0.750000  0.346675  1
  P  P2  1  0.725707  0.250000  0.107721  1
  P  P3  1  0.274293  0.750000  0.892279  1
  P  P4  1  0.383715  0.407092  0.044139  1
  P  P5  1  0.616285  0.907092  0.955861  1
  P  P6  1  0.616285  0.592908  0.955861  1
  P  P7  1  0.383715  0.092908  0.044139  1
  P  P8  1  0.284920  0.471374  0.405182  1
  P  P9  1  0.715080  0.971374  0.594818  1
  P  P10  1  0.715080  0.528626  0.594818  1
  P  P11  1  0.284920  0.028626  0.405182  1
