# generated using pymatgen
data_TlNiO3
_symmetry_space_group_name_H-M   'P 1'
_cell_length_a   3.91312693
_cell_length_b   3.78272398
_cell_length_c   3.93473175
_cell_angle_alpha   90.00000000
_cell_angle_beta   98.02261093
_cell_angle_gamma   90.00000000
_symmetry_Int_Tables_number   1
_chemical_formula_structural   TlNiO3
_chemical_formula_sum   'Tl1 Ni1 O3'
_cell_volume   57.67297722
_cell_formula_units_Z   1
loop_
 _symmetry_equiv_pos_site_id
 _symmetry_equiv_pos_as_xyz
  1  'x, y, z'
loop_
 _atom_site_type_symbol
 _atom_site_label
 _atom_site_symmetry_multiplicity
 _atom_site_fract_x
 _atom_site_fract_y
 _atom_site_fract_z
 _atom_site_occupancy
  Tl  Tl0  1  0.976267  0.000000  0.988832  1
  Ni  Ni1  1  0.500418  0.500000  0.497988  1
  O  O2  1  0.437783  0.000000  0.423656  1
  O  O3  1  0.018567  0.500000  0.605207  1
  O  O4  1  0.606962  0.500000  0.014318  1
