# generated using pymatgen
data_LaRh3
_symmetry_space_group_name_H-M   'P 1'
_cell_length_a   5.37711904
_cell_length_b   5.37711904
_cell_length_c   17.84595636
_cell_angle_alpha   90.00000000
_cell_angle_beta   90.00000000
_cell_angle_gamma   120.00000000
_symmetry_Int_Tables_number   1
_chemical_formula_structural   LaRh3
_chemical_formula_sum   'La6 Rh18'
_cell_volume   446.85822981
_cell_formula_units_Z   6
loop_
 _symmetry_equiv_pos_site_id
 _symmetry_equiv_pos_as_xyz
  1  'x, y, z'
loop_
 _atom_site_type_symbol
 _atom_site_label
 _atom_site_symmetry_multiplicity
 _atom_site_fract_x
 _atom_site_fract_y
 _atom_site_fract_z
 _atom_site_occupancy
  La  La0  1  0.333333  0.666667  0.541659  1
  La  La1  1  0.666667  0.333333  0.041659  1
  La  La2  1  0.666667  0.333333  0.458341  1
  La  La3  1  0.333333  0.666667  0.958341  1
  La  La4  1  0.333333  0.666667  0.750000  1
  La  La5  1  0.666667  0.333333  0.250000  1
  Rh  Rh6  1  0.166640  0.333280  0.127497  1
  Rh  Rh7  1  0.833360  0.666720  0.627497  1
  Rh  Rh8  1  0.666720  0.833360  0.127497  1
  Rh  Rh9  1  0.166640  0.833360  0.127497  1
  Rh  Rh10  1  0.833360  0.166640  0.627497  1
  Rh  Rh11  1  0.333280  0.166640  0.627497  1
  Rh  Rh12  1  0.833360  0.666720  0.872503  1
  Rh  Rh13  1  0.833360  0.166640  0.872503  1
  Rh  Rh14  1  0.333280  0.166640  0.872503  1
  Rh  Rh15  1  0.666720  0.833360  0.372503  1
  Rh  Rh16  1  0.166640  0.833360  0.372503  1
  Rh  Rh17  1  0.166640  0.333280  0.372503  1
  Rh  Rh18  1  0.000000  0.000000  0.250000  1
  Rh  Rh19  1  0.000000  0.000000  0.750000  1
  Rh  Rh20  1  0.333333  0.666667  0.250000  1
  Rh  Rh21  1  0.666667  0.333333  0.750000  1
  Rh  Rh22  1  0.000000  0.000000  0.000000  1
  Rh  Rh23  1  0.000000  0.000000  0.500000  1
