# generated using pymatgen
data_Ba2Si
_symmetry_space_group_name_H-M   'P 1'
_cell_length_a   5.41883497
_cell_length_b   8.52438672
_cell_length_c   10.17434722
_cell_angle_alpha   90.00000000
_cell_angle_beta   90.00000000
_cell_angle_gamma   90.00000000
_symmetry_Int_Tables_number   1
_chemical_formula_structural   Ba2Si
_chemical_formula_sum   'Ba8 Si4'
_cell_volume   469.97593804
_cell_formula_units_Z   4
loop_
 _symmetry_equiv_pos_site_id
 _symmetry_equiv_pos_as_xyz
  1  'x, y, z'
loop_
 _atom_site_type_symbol
 _atom_site_label
 _atom_site_symmetry_multiplicity
 _atom_site_fract_x
 _atom_site_fract_y
 _atom_site_fract_z
 _atom_site_occupancy
  Ba  Ba0  1  0.750000  0.479388  0.669714  1
  Ba  Ba1  1  0.250000  0.520612  0.330286  1
  Ba  Ba2  1  0.750000  0.979388  0.830286  1
  Ba  Ba3  1  0.250000  0.020612  0.169714  1
  Ba  Ba4  1  0.250000  0.144531  0.582922  1
  Ba  Ba5  1  0.750000  0.855469  0.417078  1
  Ba  Ba6  1  0.250000  0.644531  0.917078  1
  Ba  Ba7  1  0.750000  0.355469  0.082922  1
  Si  Si8  1  0.250000  0.749100  0.601357  1
  Si  Si9  1  0.750000  0.250900  0.398643  1
  Si  Si10  1  0.250000  0.249100  0.898643  1
  Si  Si11  1  0.750000  0.750900  0.101357  1
