# generated using pymatgen
data_Ti3N
_symmetry_space_group_name_H-M   'P 1'
_cell_length_a   4.98308197
_cell_length_b   4.98308197
_cell_length_c   4.98308197
_cell_angle_alpha   139.00646607
_cell_angle_beta   139.00646607
_cell_angle_gamma   59.36499263
_symmetry_Int_Tables_number   1
_chemical_formula_structural   Ti3N
_chemical_formula_sum   'Ti3 N1'
_cell_volume   52.72114183
_cell_formula_units_Z   1
loop_
 _symmetry_equiv_pos_site_id
 _symmetry_equiv_pos_as_xyz
  1  'x, y, z'
loop_
 _atom_site_type_symbol
 _atom_site_label
 _atom_site_symmetry_multiplicity
 _atom_site_fract_x
 _atom_site_fract_y
 _atom_site_fract_z
 _atom_site_occupancy
  Ti  Ti0  1  0.250000  0.750000  0.500000  1
  Ti  Ti1  1  0.750000  0.250000  0.500000  1
  Ti  Ti2  1  0.500000  0.500000  0.000000  1
  N  N3  1  0.000000  0.000000  0.000000  1
