# generated using pymatgen
data_V4SiSb2
_symmetry_space_group_name_H-M   'P 1'
_cell_length_a   7.36103568
_cell_length_b   7.36103568
_cell_length_c   7.36103568
_cell_angle_alpha   95.83168031
_cell_angle_beta   95.83168031
_cell_angle_gamma   142.82439296
_symmetry_Int_Tables_number   1
_chemical_formula_structural   V4SiSb2
_chemical_formula_sum   'V8 Si2 Sb4'
_cell_volume   228.44092327
_cell_formula_units_Z   2
loop_
 _symmetry_equiv_pos_site_id
 _symmetry_equiv_pos_as_xyz
  1  'x, y, z'
loop_
 _atom_site_type_symbol
 _atom_site_label
 _atom_site_symmetry_multiplicity
 _atom_site_fract_x
 _atom_site_fract_y
 _atom_site_fract_z
 _atom_site_occupancy
  V  V0  1  0.084779  0.205462  0.290241  1
  V  V1  1  0.205462  0.915221  0.120683  1
  V  V2  1  0.584779  0.294538  0.879317  1
  V  V3  1  0.415221  0.705462  0.120683  1
  V  V4  1  0.294538  0.415221  0.709759  1
  V  V5  1  0.705462  0.584779  0.290241  1
  V  V6  1  0.794538  0.084779  0.879317  1
  V  V7  1  0.915221  0.794538  0.709759  1
  Si  Si8  1  0.250000  0.250000  0.000000  1
  Si  Si9  1  0.750000  0.750000  0.000000  1
  Sb  Sb10  1  0.358925  0.141075  0.500000  1
  Sb  Sb11  1  0.858925  0.358925  0.217850  1
  Sb  Sb12  1  0.141075  0.641075  0.782150  1
  Sb  Sb13  1  0.641075  0.858925  0.500000  1
