# generated using pymatgen
data_TmMg5
_symmetry_space_group_name_H-M   'P 1'
_cell_length_a   6.33126249
_cell_length_b   6.33126249
_cell_length_c   7.39528827
_cell_angle_alpha   74.30346176
_cell_angle_beta   105.69653824
_cell_angle_gamma   148.91425939
_symmetry_Int_Tables_number   1
_chemical_formula_structural   TmMg5
_chemical_formula_sum   'Tm1 Mg5'
_cell_volume   146.89900354
_cell_formula_units_Z   1
loop_
 _symmetry_equiv_pos_site_id
 _symmetry_equiv_pos_as_xyz
  1  'x, y, z'
loop_
 _atom_site_type_symbol
 _atom_site_label
 _atom_site_symmetry_multiplicity
 _atom_site_fract_x
 _atom_site_fract_y
 _atom_site_fract_z
 _atom_site_occupancy
  Tm  Tm0  1  0.621022  0.378978  0.742334  1
  Mg  Mg1  1  0.986097  0.013903  0.990273  1
  Mg  Mg2  1  0.288656  0.711344  0.075557  1
  Mg  Mg3  1  0.658056  0.341944  0.314230  1
  Mg  Mg4  1  0.947278  0.052722  0.395434  1
  Mg  Mg5  1  0.332225  0.667775  0.648839  1
