# generated using pymatgen
data_TlGeCl3
_symmetry_space_group_name_H-M   'P 1'
_cell_length_a   5.74354521
_cell_length_b   7.19568795
_cell_length_c   8.34712285
_cell_angle_alpha   90.00000000
_cell_angle_beta   109.74653241
_cell_angle_gamma   90.00000000
_symmetry_Int_Tables_number   1
_chemical_formula_structural   TlGeCl3
_chemical_formula_sum   'Tl2 Ge2 Cl6'
_cell_volume   324.69040704
_cell_formula_units_Z   2
loop_
 _symmetry_equiv_pos_site_id
 _symmetry_equiv_pos_as_xyz
  1  'x, y, z'
loop_
 _atom_site_type_symbol
 _atom_site_label
 _atom_site_symmetry_multiplicity
 _atom_site_fract_x
 _atom_site_fract_y
 _atom_site_fract_z
 _atom_site_occupancy
  Tl  Tl0  1  0.659100  0.250000  0.311333  1
  Tl  Tl1  1  0.340900  0.750000  0.688667  1
  Ge  Ge2  1  0.972868  0.250000  0.874822  1
  Ge  Ge3  1  0.027132  0.750000  0.125178  1
  Cl  Cl4  1  0.839849  0.005420  0.674274  1
  Cl  Cl5  1  0.160151  0.505420  0.325726  1
  Cl  Cl6  1  0.614122  0.750000  0.120421  1
  Cl  Cl7  1  0.385878  0.250000  0.879579  1
  Cl  Cl8  1  0.160151  0.994580  0.325726  1
  Cl  Cl9  1  0.839849  0.494580  0.674274  1
