# generated using pymatgen
data_SmGe3
_symmetry_space_group_name_H-M   'P 1'
_cell_length_a   6.12356835
_cell_length_b   6.12356835
_cell_length_c   5.21606384
_cell_angle_alpha   90.00000000
_cell_angle_beta   90.00000000
_cell_angle_gamma   120.00000000
_symmetry_Int_Tables_number   1
_chemical_formula_structural   SmGe3
_chemical_formula_sum   'Sm2 Ge6'
_cell_volume   169.38801135
_cell_formula_units_Z   2
loop_
 _symmetry_equiv_pos_site_id
 _symmetry_equiv_pos_as_xyz
  1  'x, y, z'
loop_
 _atom_site_type_symbol
 _atom_site_label
 _atom_site_symmetry_multiplicity
 _atom_site_fract_x
 _atom_site_fract_y
 _atom_site_fract_z
 _atom_site_occupancy
  Sm  Sm0  1  0.333333  0.666667  0.750000  1
  Sm  Sm1  1  0.666667  0.333333  0.250000  1
  Ge  Ge2  1  0.148289  0.296577  0.250000  1
  Ge  Ge3  1  0.703423  0.851711  0.250000  1
  Ge  Ge4  1  0.148289  0.851711  0.250000  1
  Ge  Ge5  1  0.851711  0.703423  0.750000  1
  Ge  Ge6  1  0.296577  0.148289  0.750000  1
  Ge  Ge7  1  0.851711  0.148289  0.750000  1
