# generated using pymatgen
data_K3V(SO5)2
_symmetry_space_group_name_H-M   'P 1'
_cell_length_a   7.53447557
_cell_length_b   7.39517048
_cell_length_c   10.23277028
_cell_angle_alpha   90.00000000
_cell_angle_beta   103.74137491
_cell_angle_gamma   90.00000000
_symmetry_Int_Tables_number   1
_chemical_formula_structural   K3V(SO5)2
_chemical_formula_sum   'K6 V2 S4 O20'
_cell_volume   553.83785283
_cell_formula_units_Z   2
loop_
 _symmetry_equiv_pos_site_id
 _symmetry_equiv_pos_as_xyz
  1  'x, y, z'
loop_
 _atom_site_type_symbol
 _atom_site_label
 _atom_site_symmetry_multiplicity
 _atom_site_fract_x
 _atom_site_fract_y
 _atom_site_fract_z
 _atom_site_occupancy
  K  K0  1  0.581856  0.611500  0.410661  1
  K  K1  1  0.418144  0.111500  0.589339  1
  K  K2  1  0.987049  0.342247  0.269805  1
  K  K3  1  0.012951  0.842247  0.730195  1
  K  K4  1  0.709770  0.915831  0.049016  1
  K  K5  1  0.290230  0.415831  0.950984  1
  V  V6  1  0.753849  0.343915  0.853177  1
  V  V7  1  0.246151  0.843915  0.146823  1
  S  S8  1  0.950875  0.315281  0.656524  1
  S  S9  1  0.049125  0.815281  0.343476  1
  S  S10  1  0.536668  0.651292  0.746278  1
  S  S11  1  0.463332  0.151292  0.253722  1
  O  O12  1  0.672244  0.589859  0.880828  1
  O  O13  1  0.327756  0.089859  0.119172  1
  O  O14  1  0.521890  0.487799  0.659278  1
  O  O15  1  0.478110  0.987799  0.340722  1
  O  O16  1  0.947667  0.480161  0.742772  1
  O  O17  1  0.052333  0.980161  0.257228  1
  O  O18  1  0.812940  0.191516  0.707098  1
  O  O19  1  0.187060  0.691516  0.292902  1
  O  O20  1  0.881818  0.352924  0.513560  1
  O  O21  1  0.118182  0.852924  0.486440  1
  O  O22  1  0.080547  0.813619  0.009751  1
  O  O23  1  0.919453  0.313619  0.990249  1
  O  O24  1  0.622764  0.802825  0.691412  1
  O  O25  1  0.377236  0.302825  0.308588  1
  O  O26  1  0.366389  0.702143  0.781783  1
  O  O27  1  0.633611  0.202143  0.218217  1
  O  O28  1  0.129225  0.225480  0.689890  1
  O  O29  1  0.870775  0.725480  0.310110  1
  O  O30  1  0.580745  0.212108  0.869564  1
  O  O31  1  0.419255  0.712108  0.130436  1
