# generated using pymatgen
data_LiSiB6
_symmetry_space_group_name_H-M   'P 1'
_cell_length_a   6.29309688
_cell_length_b   6.29309688
_cell_length_c   8.43052500
_cell_angle_alpha   90.00000000
_cell_angle_beta   90.00000000
_cell_angle_gamma   121.90423776
_symmetry_Int_Tables_number   1
_chemical_formula_structural   LiSiB6
_chemical_formula_sum   'Li4 Si4 B24'
_cell_volume   283.43708167
_cell_formula_units_Z   4
loop_
 _symmetry_equiv_pos_site_id
 _symmetry_equiv_pos_as_xyz
  1  'x, y, z'
loop_
 _atom_site_type_symbol
 _atom_site_label
 _atom_site_symmetry_multiplicity
 _atom_site_fract_x
 _atom_site_fract_y
 _atom_site_fract_z
 _atom_site_occupancy
  Li  Li0  1  0.324441  0.675559  0.660149  1
  Li  Li1  1  0.824441  0.175559  0.839851  1
  Li  Li2  1  0.175559  0.824441  0.160149  1
  Li  Li3  1  0.675559  0.324441  0.339851  1
  Si  Si4  1  0.665662  0.334338  0.620404  1
  Si  Si5  1  0.165662  0.834338  0.879597  1
  Si  Si6  1  0.834338  0.165662  0.120404  1
  Si  Si7  1  0.334338  0.665662  0.379597  1
  B  B8  1  0.313443  0.155178  0.531450  1
  B  B9  1  0.844822  0.686557  0.531450  1
  B  B10  1  0.848128  0.151872  0.556094  1
  B  B11  1  0.100406  0.899594  0.650406  1
  B  B12  1  0.119677  0.198409  0.665707  1
  B  B13  1  0.801591  0.880323  0.665707  1
  B  B14  1  0.301591  0.380323  0.834293  1
  B  B15  1  0.619677  0.698409  0.834293  1
  B  B16  1  0.600406  0.399594  0.849595  1
  B  B17  1  0.348128  0.651872  0.943906  1
  B  B18  1  0.344822  0.186557  0.968550  1
  B  B19  1  0.813443  0.655178  0.968550  1
  B  B20  1  0.186557  0.344822  0.031451  1
  B  B21  1  0.655177  0.813443  0.031451  1
  B  B22  1  0.651872  0.348128  0.056094  1
  B  B23  1  0.399593  0.600406  0.150405  1
  B  B24  1  0.380323  0.301591  0.165707  1
  B  B25  1  0.698409  0.619677  0.165707  1
  B  B26  1  0.198409  0.119677  0.334293  1
  B  B27  1  0.880323  0.801591  0.334293  1
  B  B28  1  0.899594  0.100406  0.349595  1
  B  B29  1  0.151872  0.848128  0.443906  1
  B  B30  1  0.155178  0.313443  0.468550  1
  B  B31  1  0.686556  0.844822  0.468550  1
