# generated using pymatgen
data_TlGaSe2
_symmetry_space_group_name_H-M   'P 1'
_cell_length_a   6.67219841
_cell_length_b   6.67219841
_cell_length_c   6.67219841
_cell_angle_alpha   103.86654126
_cell_angle_beta   103.86654126
_cell_angle_gamma   121.37772301
_symmetry_Int_Tables_number   1
_chemical_formula_structural   TlGaSe2
_chemical_formula_sum   'Tl2 Ga2 Se4'
_cell_volume   221.12754767
_cell_formula_units_Z   2
loop_
 _symmetry_equiv_pos_site_id
 _symmetry_equiv_pos_as_xyz
  1  'x, y, z'
loop_
 _atom_site_type_symbol
 _atom_site_label
 _atom_site_symmetry_multiplicity
 _atom_site_fract_x
 _atom_site_fract_y
 _atom_site_fract_z
 _atom_site_occupancy
  Tl  Tl0  1  0.750000  0.750000  0.000000  1
  Tl  Tl1  1  0.250000  0.250000  0.000000  1
  Ga  Ga2  1  0.750000  0.250000  0.500000  1
  Ga  Ga3  1  0.250000  0.750000  0.500000  1
  Se  Se4  1  0.659198  0.840802  0.500000  1
  Se  Se5  1  0.159198  0.659198  0.818397  1
  Se  Se6  1  0.340802  0.159198  0.500000  1
  Se  Se7  1  0.840802  0.340802  0.181603  1
