# generated using pymatgen
data_NiAu3
_symmetry_space_group_name_H-M   'P 1'
_cell_length_a   5.66973332
_cell_length_b   5.66973332
_cell_length_c   4.68889747
_cell_angle_alpha   90.00000000
_cell_angle_beta   90.00000000
_cell_angle_gamma   120.00000000
_symmetry_Int_Tables_number   1
_chemical_formula_structural   NiAu3
_chemical_formula_sum   'Ni2 Au6'
_cell_volume   130.53489754
_cell_formula_units_Z   2
loop_
 _symmetry_equiv_pos_site_id
 _symmetry_equiv_pos_as_xyz
  1  'x, y, z'
loop_
 _atom_site_type_symbol
 _atom_site_label
 _atom_site_symmetry_multiplicity
 _atom_site_fract_x
 _atom_site_fract_y
 _atom_site_fract_z
 _atom_site_occupancy
  Ni  Ni0  1  0.666667  0.333333  0.250000  1
  Ni  Ni1  1  0.333333  0.666667  0.750000  1
  Au  Au2  1  0.830076  0.660153  0.750000  1
  Au  Au3  1  0.339847  0.169924  0.750000  1
  Au  Au4  1  0.830076  0.169924  0.750000  1
  Au  Au5  1  0.660153  0.830076  0.250000  1
  Au  Au6  1  0.169924  0.830076  0.250000  1
  Au  Au7  1  0.169924  0.339847  0.250000  1
