# generated using pymatgen
data_LaF3
_symmetry_space_group_name_H-M   'P 1'
_cell_length_a   7.24650519
_cell_length_b   7.24650519
_cell_length_c   7.39085067
_cell_angle_alpha   90.00000000
_cell_angle_beta   90.00000000
_cell_angle_gamma   120.00000000
_symmetry_Int_Tables_number   1
_chemical_formula_structural   LaF3
_chemical_formula_sum   'La6 F18'
_cell_volume   336.11065053
_cell_formula_units_Z   6
loop_
 _symmetry_equiv_pos_site_id
 _symmetry_equiv_pos_as_xyz
  1  'x, y, z'
loop_
 _atom_site_type_symbol
 _atom_site_label
 _atom_site_symmetry_multiplicity
 _atom_site_fract_x
 _atom_site_fract_y
 _atom_site_fract_z
 _atom_site_occupancy
  La  La0  1  0.342676  0.342676  0.750000  1
  La  La1  1  0.000000  0.657324  0.750000  1
  La  La2  1  0.657324  0.000000  0.750000  1
  La  La3  1  0.657324  0.657324  0.250000  1
  La  La4  1  0.000000  0.342676  0.250000  1
  La  La5  1  0.342676  0.000000  0.250000  1
  F  F6  1  0.000000  0.000000  0.750000  1
  F  F7  1  0.000000  0.000000  0.250000  1
  F  F8  1  0.333333  0.666667  0.814851  1
  F  F9  1  0.666667  0.333333  0.685149  1
  F  F10  1  0.666667  0.333333  0.185149  1
  F  F11  1  0.333333  0.666667  0.314851  1
  F  F12  1  0.309469  0.939196  0.579901  1
  F  F13  1  0.060804  0.370273  0.579901  1
  F  F14  1  0.629727  0.690531  0.579901  1
  F  F15  1  0.370273  0.060804  0.920099  1
  F  F16  1  0.690531  0.629727  0.920099  1
  F  F17  1  0.939196  0.309469  0.920099  1
  F  F18  1  0.690531  0.060804  0.420099  1
  F  F19  1  0.939196  0.629727  0.420099  1
  F  F20  1  0.370273  0.309469  0.420099  1
  F  F21  1  0.629727  0.939196  0.079901  1
  F  F22  1  0.309469  0.370273  0.079901  1
  F  F23  1  0.060804  0.690531  0.079901  1
