# generated using pymatgen
data_NbP
_symmetry_space_group_name_H-M   'P 1'
_cell_length_a   6.19119766
_cell_length_b   6.19119766
_cell_length_c   6.19119766
_cell_angle_alpha   148.54466999
_cell_angle_beta   148.54466999
_cell_angle_gamma   45.08196255
_symmetry_Int_Tables_number   1
_chemical_formula_structural   NbP
_chemical_formula_sum   'Nb2 P2'
_cell_volume   64.41962966
_cell_formula_units_Z   2
loop_
 _symmetry_equiv_pos_site_id
 _symmetry_equiv_pos_as_xyz
  1  'x, y, z'
loop_
 _atom_site_type_symbol
 _atom_site_label
 _atom_site_symmetry_multiplicity
 _atom_site_fract_x
 _atom_site_fract_y
 _atom_site_fract_z
 _atom_site_occupancy
  Nb  Nb0  1  0.749923  0.749923  0.000000  1
  Nb  Nb1  1  0.499923  0.999923  0.500000  1
  P  P2  1  0.167447  0.167447  0.000000  1
  P  P3  1  0.917447  0.417447  0.500000  1
