# generated using pymatgen
data_H4C5O2
_symmetry_space_group_name_H-M   'P 1'
_cell_length_a   4.57952370
_cell_length_b   6.00215995
_cell_length_c   9.11976621
_cell_angle_alpha   95.13690448
_cell_angle_beta   101.65791019
_cell_angle_gamma   111.98061357
_symmetry_Int_Tables_number   1
_chemical_formula_structural   H4C5O2
_chemical_formula_sum   'H8 C10 O4'
_cell_volume   223.86206005
_cell_formula_units_Z   2
loop_
 _symmetry_equiv_pos_site_id
 _symmetry_equiv_pos_as_xyz
  1  'x, y, z'
loop_
 _atom_site_type_symbol
 _atom_site_label
 _atom_site_symmetry_multiplicity
 _atom_site_fract_x
 _atom_site_fract_y
 _atom_site_fract_z
 _atom_site_occupancy
  H  H0  1  0.097925  0.075254  0.388906  1
  H  H1  1  0.902075  0.924746  0.611094  1
  H  H2  1  0.466136  0.844830  0.375601  1
  H  H3  1  0.533864  0.155170  0.624399  1
  H  H4  1  0.614251  0.264981  0.968459  1
  H  H5  1  0.385749  0.735019  0.031541  1
  H  H6  1  0.321823  0.135495  0.073437  1
  H  H7  1  0.678177  0.864505  0.926563  1
  C  C8  1  0.273293  0.261386  0.438034  1
  C  C9  1  0.726707  0.738614  0.561966  1
  C  C10  1  0.480881  0.695081  0.431660  1
  C  C11  1  0.519119  0.304919  0.568340  1
  C  C12  1  0.986427  0.421447  0.232014  1
  C  C13  1  0.013573  0.578553  0.767986  1
  C  C14  1  0.251481  0.456221  0.368722  1
  C  C15  1  0.748519  0.543779  0.631278  1
  C  C16  1  0.535796  0.127684  0.039803  1
  C  C17  1  0.464204  0.872316  0.960197  1
  O  O18  1  0.796274  0.181230  0.175887  1
  O  O19  1  0.203726  0.818770  0.824113  1
  O  O20  1  0.942571  0.589250  0.177403  1
  O  O21  1  0.057429  0.410750  0.822597  1
