# generated using pymatgen
data_NaTeAu
_symmetry_space_group_name_H-M   'P 1'
_cell_length_a   4.70965637
_cell_length_b   4.70965637
_cell_length_c   8.68764541
_cell_angle_alpha   90.00000000
_cell_angle_beta   90.00000000
_cell_angle_gamma   120.00000000
_symmetry_Int_Tables_number   1
_chemical_formula_structural   NaTeAu
_chemical_formula_sum   'Na2 Te2 Au2'
_cell_volume   166.88263945
_cell_formula_units_Z   2
loop_
 _symmetry_equiv_pos_site_id
 _symmetry_equiv_pos_as_xyz
  1  'x, y, z'
loop_
 _atom_site_type_symbol
 _atom_site_label
 _atom_site_symmetry_multiplicity
 _atom_site_fract_x
 _atom_site_fract_y
 _atom_site_fract_z
 _atom_site_occupancy
  Na  Na0  1  0.000000  0.000000  0.000000  1
  Na  Na1  1  0.000000  0.000000  0.500000  1
  Te  Te2  1  0.333333  0.666667  0.750000  1
  Te  Te3  1  0.666667  0.333333  0.250000  1
  Au  Au4  1  0.333333  0.666667  0.250000  1
  Au  Au5  1  0.666667  0.333333  0.750000  1
