# generated using pymatgen
data_K2Fe2(SO4)3
_symmetry_space_group_name_H-M   'P 1'
_cell_length_a   10.14497025
_cell_length_b   10.14497025
_cell_length_c   10.14497025
_cell_angle_alpha   90.00000000
_cell_angle_beta   90.00000000
_cell_angle_gamma   90.00000000
_symmetry_Int_Tables_number   1
_chemical_formula_structural   K2Fe2(SO4)3
_chemical_formula_sum   'K8 Fe8 S12 O48'
_cell_volume   1044.12461295
_cell_formula_units_Z   4
loop_
 _symmetry_equiv_pos_site_id
 _symmetry_equiv_pos_as_xyz
  1  'x, y, z'
loop_
 _atom_site_type_symbol
 _atom_site_label
 _atom_site_symmetry_multiplicity
 _atom_site_fract_x
 _atom_site_fract_y
 _atom_site_fract_z
 _atom_site_occupancy
  K  K0  1  0.684696  0.184696  0.315304  1
  K  K1  1  0.315304  0.684696  0.184696  1
  K  K2  1  0.949195  0.550805  0.449195  1
  K  K3  1  0.184696  0.315304  0.684696  1
  K  K4  1  0.050805  0.050805  0.050805  1
  K  K5  1  0.449195  0.949195  0.550805  1
  K  K6  1  0.550805  0.449195  0.949195  1
  K  K7  1  0.815304  0.815304  0.815304  1
  Fe  Fe8  1  0.335193  0.335193  0.335193  1
  Fe  Fe9  1  0.164807  0.664807  0.835193  1
  Fe  Fe10  1  0.835193  0.164807  0.664807  1
  Fe  Fe11  1  0.664807  0.835193  0.164807  1
  Fe  Fe12  1  0.593858  0.593858  0.593858  1
  Fe  Fe13  1  0.093858  0.906142  0.406142  1
  Fe  Fe14  1  0.406142  0.093858  0.906142  1
  Fe  Fe15  1  0.906142  0.406142  0.093858  1
  S  S16  1  0.280897  0.623394  0.518958  1
  S  S17  1  0.780897  0.876606  0.481042  1
  S  S18  1  0.719103  0.123394  0.981042  1
  S  S19  1  0.876606  0.481042  0.780897  1
  S  S20  1  0.981042  0.719103  0.123394  1
  S  S21  1  0.481042  0.780897  0.876606  1
  S  S22  1  0.623394  0.518958  0.280897  1
  S  S23  1  0.518958  0.280897  0.623394  1
  S  S24  1  0.123394  0.981042  0.719103  1
  S  S25  1  0.219103  0.376606  0.018958  1
  S  S26  1  0.018958  0.219103  0.376606  1
  S  S27  1  0.376606  0.018958  0.219103  1
  O  O28  1  0.252067  0.594471  0.659203  1
  O  O29  1  0.752067  0.905529  0.340797  1
  O  O30  1  0.747933  0.094471  0.840797  1
  O  O31  1  0.905529  0.340797  0.752067  1
  O  O32  1  0.840797  0.747933  0.094471  1
  O  O33  1  0.340797  0.752067  0.905529  1
  O  O34  1  0.594471  0.659203  0.252067  1
  O  O35  1  0.659203  0.252067  0.594471  1
  O  O36  1  0.094471  0.840797  0.747933  1
  O  O37  1  0.405529  0.159203  0.247933  1
  O  O38  1  0.159203  0.247933  0.405529  1
  O  O39  1  0.247933  0.405529  0.159203  1
  O  O40  1  0.259011  0.499830  0.442273  1
  O  O41  1  0.759011  0.000170  0.557727  1
  O  O42  1  0.740989  0.999830  0.057727  1
  O  O43  1  0.000170  0.557727  0.759011  1
  O  O44  1  0.057727  0.740989  0.999830  1
  O  O45  1  0.557727  0.759011  0.000170  1
  O  O46  1  0.996380  0.580399  0.171067  1
  O  O47  1  0.442273  0.259011  0.499830  1
  O  O48  1  0.999830  0.057727  0.740989  1
  O  O49  1  0.500170  0.942273  0.240989  1
  O  O50  1  0.942273  0.240989  0.500170  1
  O  O51  1  0.240989  0.500170  0.942273  1
  O  O52  1  0.419601  0.671067  0.503620  1
  O  O53  1  0.919601  0.828933  0.496380  1
  O  O54  1  0.580399  0.171067  0.996380  1
  O  O55  1  0.828933  0.496380  0.919601  1
  O  O56  1  0.309672  0.275758  0.963844  1
  O  O57  1  0.963844  0.309672  0.275758  1
  O  O58  1  0.275758  0.963844  0.309672  1
  O  O59  1  0.224242  0.036156  0.809672  1
  O  O60  1  0.463844  0.190328  0.724242  1
  O  O61  1  0.724242  0.463844  0.190328  1
  O  O62  1  0.536156  0.690328  0.775758  1
  O  O63  1  0.036156  0.809672  0.224242  1
  O  O64  1  0.775758  0.536156  0.690328  1
  O  O65  1  0.809672  0.224242  0.036156  1
  O  O66  1  0.690328  0.775758  0.536156  1
  O  O67  1  0.190328  0.724242  0.463844  1
  O  O68  1  0.080399  0.328933  0.003620  1
  O  O69  1  0.003620  0.080399  0.328933  1
  O  O70  1  0.328933  0.003620  0.080399  1
  O  O71  1  0.171067  0.996380  0.580399  1
  O  O72  1  0.503620  0.419601  0.671067  1
  O  O73  1  0.671067  0.503620  0.419601  1
  O  O74  1  0.496380  0.919601  0.828933  1
  O  O75  1  0.499830  0.442273  0.259011  1
