# generated using pymatgen
data_Li(Mg4Al3)4
_symmetry_space_group_name_H-M   'P 1'
_cell_length_a   9.07814607
_cell_length_b   9.07814607
_cell_length_c   9.11609897
_cell_angle_alpha   70.56306902
_cell_angle_beta   109.43693098
_cell_angle_gamma   70.83166844
_symmetry_Int_Tables_number   1
_chemical_formula_structural   Li(Mg4Al3)4
_chemical_formula_sum   'Li1 Mg16 Al12'
_cell_volume   580.97068171
_cell_formula_units_Z   1
loop_
 _symmetry_equiv_pos_site_id
 _symmetry_equiv_pos_as_xyz
  1  'x, y, z'
loop_
 _atom_site_type_symbol
 _atom_site_label
 _atom_site_symmetry_multiplicity
 _atom_site_fract_x
 _atom_site_fract_y
 _atom_site_fract_z
 _atom_site_occupancy
  Li  Li0  1  0.684040  0.315960  0.290897  1
  Mg  Mg1  1  0.396898  0.603102  0.711793  1
  Mg  Mg2  1  0.991138  0.008862  0.343341  1
  Mg  Mg3  1  0.000740  0.999260  0.001328  1
  Mg  Mg4  1  0.656850  0.343150  0.657081  1
  Mg  Mg5  1  0.600729  0.679401  0.002807  1
  Mg  Mg6  1  0.714472  0.598876  0.398057  1
  Mg  Mg7  1  0.315772  0.999254  0.602209  1
  Mg  Mg8  1  0.344955  0.999816  0.999068  1
  Mg  Mg9  1  0.999038  0.396977  0.314597  1
  Mg  Mg10  1  0.684014  0.713930  0.683555  1
  Mg  Mg11  1  0.286070  0.315986  0.683555  1
  Mg  Mg12  1  0.603023  0.000962  0.314597  1
  Mg  Mg13  1  0.000184  0.655045  0.999068  1
  Mg  Mg14  1  0.000746  0.684228  0.602209  1
  Mg  Mg15  1  0.401124  0.285528  0.398057  1
  Mg  Mg16  1  0.320599  0.399271  0.002807  1
  Al  Al17  1  0.184983  0.815017  0.819997  1
  Al  Al18  1  0.368774  0.631226  0.182284  1
  Al  Al19  1  0.814560  0.367088  0.998720  1
  Al  Al20  1  0.998224  0.186559  0.631344  1
  Al  Al21  1  0.365639  0.819888  0.365378  1
  Al  Al22  1  0.185895  0.181235  0.184826  1
  Al  Al23  1  0.001827  0.365542  0.816078  1
  Al  Al24  1  0.634458  0.998173  0.816078  1
  Al  Al25  1  0.818765  0.814105  0.184826  1
  Al  Al26  1  0.180112  0.634361  0.365378  1
  Al  Al27  1  0.813441  0.001776  0.631344  1
  Al  Al28  1  0.632912  0.185440  0.998720  1
