# generated using pymatgen
data_B4PbO7
_symmetry_space_group_name_H-M   'P 1'
_cell_length_a   4.29169050
_cell_length_b   4.50342662
_cell_length_c   10.97302073
_cell_angle_alpha   90.00000000
_cell_angle_beta   90.00000000
_cell_angle_gamma   90.00000000
_symmetry_Int_Tables_number   1
_chemical_formula_structural   B4PbO7
_chemical_formula_sum   'B8 Pb2 O14'
_cell_volume   212.07900887
_cell_formula_units_Z   2
loop_
 _symmetry_equiv_pos_site_id
 _symmetry_equiv_pos_as_xyz
  1  'x, y, z'
loop_
 _atom_site_type_symbol
 _atom_site_label
 _atom_site_symmetry_multiplicity
 _atom_site_fract_x
 _atom_site_fract_y
 _atom_site_fract_z
 _atom_site_occupancy
  B  B0  1  0.996013  0.676045  0.248469  1
  B  B1  1  0.496013  0.323955  0.251531  1
  B  B2  1  0.024103  0.174188  0.377863  1
  B  B3  1  0.524103  0.825812  0.122137  1
  B  B4  1  0.524103  0.825812  0.877863  1
  B  B5  1  0.024103  0.174188  0.622137  1
  B  B6  1  0.496013  0.323955  0.748469  1
  B  B7  1  0.996013  0.676045  0.751531  1
  Pb  Pb8  1  0.534396  0.694940  0.500000  1
  Pb  Pb9  1  0.034396  0.305060  0.000000  1
  O  O10  1  0.452927  0.138388  0.145261  1
  O  O11  1  0.354403  0.233445  0.363082  1
  O  O12  1  0.854403  0.766555  0.136918  1
  O  O13  1  0.854403  0.766555  0.863082  1
  O  O14  1  0.849676  0.373290  0.718296  1
  O  O15  1  0.349676  0.626710  0.781704  1
  O  O16  1  0.349676  0.626710  0.218296  1
  O  O17  1  0.849676  0.373290  0.281704  1
  O  O18  1  0.952927  0.861612  0.645261  1
  O  O19  1  0.452927  0.138388  0.854739  1
  O  O20  1  0.917160  0.260715  0.500000  1
  O  O21  1  0.417160  0.739285  0.000000  1
  O  O22  1  0.354403  0.233445  0.636918  1
  O  O23  1  0.952927  0.861612  0.354739  1
