# generated using pymatgen
data_AgClO2
_symmetry_space_group_name_H-M   'P 1'
_cell_length_a   10.64400019
_cell_length_b   10.64400019
_cell_length_c   3.47542849
_cell_angle_alpha   89.85585225
_cell_angle_beta   90.14414775
_cell_angle_gamma   28.09146970
_symmetry_Int_Tables_number   1
_chemical_formula_structural   AgClO2
_chemical_formula_sum   'Ag2 Cl2 O4'
_cell_volume   185.39820053
_cell_formula_units_Z   2
loop_
 _symmetry_equiv_pos_site_id
 _symmetry_equiv_pos_as_xyz
  1  'x, y, z'
loop_
 _atom_site_type_symbol
 _atom_site_label
 _atom_site_symmetry_multiplicity
 _atom_site_fract_x
 _atom_site_fract_y
 _atom_site_fract_z
 _atom_site_occupancy
  Ag  Ag0  1  0.500000  0.000000  0.000000  1
  Ag  Ag1  1  0.000000  0.500000  0.500000  1
  Cl  Cl2  1  0.661770  0.661770  0.750000  1
  Cl  Cl3  1  0.338230  0.338230  0.250000  1
  O  O4  1  0.086130  0.847710  0.751770  1
  O  O5  1  0.847710  0.086130  0.748230  1
  O  O6  1  0.152290  0.913870  0.251770  1
  O  O7  1  0.913870  0.152290  0.248230  1
