# generated using pymatgen
data_CaU(PO4)2
_symmetry_space_group_name_H-M   'P 1'
_cell_length_a   6.20149741
_cell_length_b   7.02821803
_cell_length_c   14.08095044
_cell_angle_alpha   90.00000000
_cell_angle_beta   90.00000000
_cell_angle_gamma   90.00000000
_symmetry_Int_Tables_number   1
_chemical_formula_structural   CaU(PO4)2
_chemical_formula_sum   'Ca4 U4 P8 O32'
_cell_volume   613.72492619
_cell_formula_units_Z   4
loop_
 _symmetry_equiv_pos_site_id
 _symmetry_equiv_pos_as_xyz
  1  'x, y, z'
loop_
 _atom_site_type_symbol
 _atom_site_label
 _atom_site_symmetry_multiplicity
 _atom_site_fract_x
 _atom_site_fract_y
 _atom_site_fract_z
 _atom_site_occupancy
  Ca  Ca0  1  0.893946  0.750000  0.619812  1
  Ca  Ca1  1  0.393946  0.250000  0.880188  1
  Ca  Ca2  1  0.106054  0.250000  0.380188  1
  Ca  Ca3  1  0.606054  0.750000  0.119812  1
  U  U4  1  0.129537  0.750000  0.872061  1
  U  U5  1  0.629537  0.250000  0.627939  1
  U  U6  1  0.870463  0.250000  0.127939  1
  U  U7  1  0.370463  0.750000  0.372061  1
  P  P8  1  0.400258  0.750000  0.628677  1
  P  P9  1  0.900258  0.250000  0.871323  1
  P  P10  1  0.599742  0.250000  0.371323  1
  P  P11  1  0.099742  0.750000  0.128677  1
  P  P12  1  0.628356  0.750000  0.872758  1
  P  P13  1  0.128356  0.250000  0.627242  1
  P  P14  1  0.371644  0.250000  0.127242  1
  P  P15  1  0.871644  0.750000  0.372758  1
  O  O16  1  0.772702  0.750000  0.962425  1
  O  O17  1  0.272702  0.250000  0.537575  1
  O  O18  1  0.227298  0.250000  0.037575  1
  O  O19  1  0.727298  0.750000  0.462425  1
  O  O20  1  0.793965  0.750000  0.789765  1
  O  O21  1  0.293965  0.250000  0.710235  1
  O  O22  1  0.206035  0.250000  0.210235  1
  O  O23  1  0.706035  0.750000  0.289765  1
  O  O24  1  0.530626  0.421627  0.129011  1
  O  O25  1  0.030626  0.578373  0.370989  1
  O  O26  1  0.469374  0.921627  0.870989  1
  O  O27  1  0.969374  0.078373  0.629011  1
  O  O28  1  0.469374  0.578373  0.870989  1
  O  O29  1  0.969374  0.421627  0.629011  1
  O  O30  1  0.530626  0.078373  0.129011  1
  O  O31  1  0.030626  0.921627  0.370989  1
  O  O32  1  0.270164  0.750000  0.209439  1
  O  O33  1  0.770164  0.250000  0.290561  1
  O  O34  1  0.729836  0.250000  0.790561  1
  O  O35  1  0.229836  0.750000  0.709439  1
  O  O36  1  0.225515  0.750000  0.033187  1
  O  O37  1  0.725515  0.250000  0.466813  1
  O  O38  1  0.774485  0.250000  0.966813  1
  O  O39  1  0.274485  0.750000  0.533187  1
  O  O40  1  0.950027  0.927188  0.133929  1
  O  O41  1  0.450027  0.072812  0.366071  1
  O  O42  1  0.049973  0.427188  0.866071  1
  O  O43  1  0.549973  0.572812  0.633929  1
  O  O44  1  0.049973  0.072812  0.866071  1
  O  O45  1  0.549973  0.927188  0.633929  1
  O  O46  1  0.950027  0.572812  0.133929  1
  O  O47  1  0.450027  0.427188  0.366071  1
