# generated using pymatgen
data_Tc2P3
_symmetry_space_group_name_H-M   'P 1'
_cell_length_a   6.32126953
_cell_length_b   6.36786735
_cell_length_c   7.72517553
_cell_angle_alpha   95.76319338
_cell_angle_beta   101.70415582
_cell_angle_gamma   104.36424952
_symmetry_Int_Tables_number   1
_chemical_formula_structural   Tc2P3
_chemical_formula_sum   'Tc8 P12'
_cell_volume   291.22859566
_cell_formula_units_Z   4
loop_
 _symmetry_equiv_pos_site_id
 _symmetry_equiv_pos_as_xyz
  1  'x, y, z'
loop_
 _atom_site_type_symbol
 _atom_site_label
 _atom_site_symmetry_multiplicity
 _atom_site_fract_x
 _atom_site_fract_y
 _atom_site_fract_z
 _atom_site_occupancy
  Tc  Tc0  1  0.903338  0.414631  0.146113  1
  Tc  Tc1  1  0.096662  0.585369  0.853887  1
  Tc  Tc2  1  0.377268  0.416016  0.140027  1
  Tc  Tc3  1  0.622732  0.583984  0.859973  1
  Tc  Tc4  1  0.536644  0.861332  0.361478  1
  Tc  Tc5  1  0.463356  0.138668  0.638522  1
  Tc  Tc6  1  0.078311  0.868697  0.368596  1
  Tc  Tc7  1  0.921689  0.131303  0.631404  1
  P  P8  1  0.735515  0.576556  0.361153  1
  P  P9  1  0.264485  0.423444  0.638847  1
  P  P10  1  0.234916  0.561829  0.382121  1
  P  P11  1  0.765084  0.438171  0.617879  1
  P  P12  1  0.861244  0.133876  0.318063  1
  P  P13  1  0.138756  0.866124  0.681937  1
  P  P14  1  0.370521  0.150932  0.322341  1
  P  P15  1  0.629479  0.849068  0.677659  1
  P  P16  1  0.537693  0.184167  0.963725  1
  P  P17  1  0.462307  0.815833  0.036275  1
  P  P18  1  0.033330  0.177951  0.956979  1
  P  P19  1  0.966670  0.822049  0.043021  1
