# generated using pymatgen
data_BaPr2PdO5
_symmetry_space_group_name_H-M   'P 1'
_cell_length_a   6.86452191
_cell_length_b   6.86452191
_cell_length_c   5.99689468
_cell_angle_alpha   90.00000000
_cell_angle_beta   90.00000000
_cell_angle_gamma   90.00000000
_symmetry_Int_Tables_number   1
_chemical_formula_structural   BaPr2PdO5
_chemical_formula_sum   'Ba2 Pr4 Pd2 O10'
_cell_volume   282.58363848
_cell_formula_units_Z   2
loop_
 _symmetry_equiv_pos_site_id
 _symmetry_equiv_pos_as_xyz
  1  'x, y, z'
loop_
 _atom_site_type_symbol
 _atom_site_label
 _atom_site_symmetry_multiplicity
 _atom_site_fract_x
 _atom_site_fract_y
 _atom_site_fract_z
 _atom_site_occupancy
  Ba  Ba0  1  0.500000  0.500000  0.000000  1
  Ba  Ba1  1  0.000000  0.000000  0.000000  1
  Pr  Pr2  1  0.673679  0.173679  0.500000  1
  Pr  Pr3  1  0.173679  0.326321  0.500000  1
  Pr  Pr4  1  0.826321  0.673679  0.500000  1
  Pr  Pr5  1  0.326321  0.826321  0.500000  1
  Pd  Pd6  1  0.000000  0.500000  0.000000  1
  Pd  Pd7  1  0.500000  0.000000  0.000000  1
  O  O8  1  0.500000  0.500000  0.500000  1
  O  O9  1  0.000000  0.000000  0.500000  1
  O  O10  1  0.140384  0.640384  0.250153  1
  O  O11  1  0.859616  0.359616  0.250153  1
  O  O12  1  0.359616  0.140384  0.250153  1
  O  O13  1  0.640384  0.859616  0.250153  1
  O  O14  1  0.140384  0.640384  0.749847  1
  O  O15  1  0.640384  0.859616  0.749847  1
  O  O16  1  0.859616  0.359616  0.749847  1
  O  O17  1  0.359616  0.140384  0.749847  1
