# generated using pymatgen
data_Pa3Tl
_symmetry_space_group_name_H-M   'P 1'
_cell_length_a   5.71990968
_cell_length_b   5.71990968
_cell_length_c   5.71990968
_cell_angle_alpha   132.00192833
_cell_angle_beta   132.00192833
_cell_angle_gamma   70.22598132
_symmetry_Int_Tables_number   1
_chemical_formula_structural   Pa3Tl
_chemical_formula_sum   'Pa3 Tl1'
_cell_volume   101.29426068
_cell_formula_units_Z   1
loop_
 _symmetry_equiv_pos_site_id
 _symmetry_equiv_pos_as_xyz
  1  'x, y, z'
loop_
 _atom_site_type_symbol
 _atom_site_label
 _atom_site_symmetry_multiplicity
 _atom_site_fract_x
 _atom_site_fract_y
 _atom_site_fract_z
 _atom_site_occupancy
  Pa  Pa0  1  0.250000  0.750000  0.500000  1
  Pa  Pa1  1  0.750000  0.250000  0.500000  1
  Pa  Pa2  1  0.500000  0.500000  0.000000  1
  Tl  Tl3  1  0.000000  0.000000  0.000000  1
