# generated using pymatgen
data_LiCoHSO5
_symmetry_space_group_name_H-M   'P 1'
_cell_length_a   7.43205579
_cell_length_b   5.45957951
_cell_length_c   9.84356766
_cell_angle_alpha   90.00000000
_cell_angle_beta   110.18659191
_cell_angle_gamma   90.00000000
_symmetry_Int_Tables_number   1
_chemical_formula_structural   LiCoHSO5
_chemical_formula_sum   'Li4 Co4 H4 S4 O20'
_cell_volume   374.87727575
_cell_formula_units_Z   4
loop_
 _symmetry_equiv_pos_site_id
 _symmetry_equiv_pos_as_xyz
  1  'x, y, z'
loop_
 _atom_site_type_symbol
 _atom_site_label
 _atom_site_symmetry_multiplicity
 _atom_site_fract_x
 _atom_site_fract_y
 _atom_site_fract_z
 _atom_site_occupancy
  Li  Li0  1  0.685486  0.440017  0.914400  1
  Li  Li1  1  0.814514  0.940017  0.085600  1
  Li  Li2  1  0.314514  0.559983  0.085600  1
  Li  Li3  1  0.185486  0.059983  0.914400  1
  Co  Co4  1  0.880025  0.768594  0.449387  1
  Co  Co5  1  0.619975  0.268594  0.550613  1
  Co  Co6  1  0.119975  0.231406  0.550613  1
  Co  Co7  1  0.380025  0.731406  0.449387  1
  H  H8  1  0.398352  0.491193  0.665147  1
  H  H9  1  0.101648  0.991193  0.334853  1
  H  H10  1  0.601648  0.508807  0.334853  1
  H  H11  1  0.898352  0.008807  0.665147  1
  S  S12  1  0.510597  0.058724  0.214777  1
  S  S13  1  0.989403  0.558724  0.785223  1
  S  S14  1  0.489403  0.941276  0.785223  1
  S  S15  1  0.010597  0.441276  0.214777  1
  O  O16  1  0.133267  0.927805  0.434290  1
  O  O17  1  0.366733  0.427805  0.565710  1
  O  O18  1  0.866733  0.072195  0.565710  1
  O  O19  1  0.633267  0.572195  0.434290  1
  O  O20  1  0.960296  0.447731  0.351059  1
  O  O21  1  0.539704  0.947731  0.648941  1
  O  O22  1  0.039704  0.552269  0.648941  1
  O  O23  1  0.460296  0.052269  0.351059  1
  O  O24  1  0.202819  0.557184  0.245517  1
  O  O25  1  0.297181  0.057184  0.754483  1
  O  O26  1  0.797181  0.442816  0.754483  1
  O  O27  1  0.702819  0.942816  0.245517  1
  O  O28  1  0.484362  0.684219  0.830951  1
  O  O29  1  0.015638  0.184219  0.169049  1
  O  O30  1  0.515638  0.315781  0.169049  1
  O  O31  1  0.984362  0.815781  0.830951  1
  O  O32  1  0.134429  0.418335  0.901725  1
  O  O33  1  0.365571  0.918335  0.098275  1
  O  O34  1  0.865571  0.581665  0.098275  1
  O  O35  1  0.634429  0.081665  0.901725  1
