# generated using pymatgen
data_Y3Sn
_symmetry_space_group_name_H-M   'P 1'
_cell_length_a   6.88067201
_cell_length_b   6.88067201
_cell_length_c   5.60068880
_cell_angle_alpha   90.00000000
_cell_angle_beta   90.00000000
_cell_angle_gamma   120.00000000
_symmetry_Int_Tables_number   1
_chemical_formula_structural   Y3Sn
_chemical_formula_sum   'Y6 Sn2'
_cell_volume   229.63272866
_cell_formula_units_Z   2
loop_
 _symmetry_equiv_pos_site_id
 _symmetry_equiv_pos_as_xyz
  1  'x, y, z'
loop_
 _atom_site_type_symbol
 _atom_site_label
 _atom_site_symmetry_multiplicity
 _atom_site_fract_x
 _atom_site_fract_y
 _atom_site_fract_z
 _atom_site_occupancy
  Y  Y0  1  0.171148  0.342295  0.250000  1
  Y  Y1  1  0.657705  0.828852  0.250000  1
  Y  Y2  1  0.171148  0.828852  0.250000  1
  Y  Y3  1  0.828852  0.657705  0.750000  1
  Y  Y4  1  0.342295  0.171148  0.750000  1
  Y  Y5  1  0.828852  0.171148  0.750000  1
  Sn  Sn6  1  0.333333  0.666667  0.750000  1
  Sn  Sn7  1  0.666667  0.333333  0.250000  1
