# generated using pymatgen
data_Ba6Ni25S27
_symmetry_space_group_name_H-M   'P 1'
_cell_length_a   10.06171426
_cell_length_b   10.06171426
_cell_length_c   10.06171426
_cell_angle_alpha   90.00000000
_cell_angle_beta   90.00000000
_cell_angle_gamma   90.00000000
_symmetry_Int_Tables_number   1
_chemical_formula_structural   Ba6Ni25S27
_chemical_formula_sum   'Ba6 Ni25 S27'
_cell_volume   1018.62877254
_cell_formula_units_Z   1
loop_
 _symmetry_equiv_pos_site_id
 _symmetry_equiv_pos_as_xyz
  1  'x, y, z'
loop_
 _atom_site_type_symbol
 _atom_site_label
 _atom_site_symmetry_multiplicity
 _atom_site_fract_x
 _atom_site_fract_y
 _atom_site_fract_z
 _atom_site_occupancy
  Ba  Ba0  1  0.500000  0.500000  0.804873  1
  Ba  Ba1  1  0.804873  0.500000  0.500000  1
  Ba  Ba2  1  0.195127  0.500000  0.500000  1
  Ba  Ba3  1  0.500000  0.195127  0.500000  1
  Ba  Ba4  1  0.500000  0.804873  0.500000  1
  Ba  Ba5  1  0.500000  0.500000  0.195127  1
  Ni  Ni6  1  0.133010  0.640655  0.133010  1
  Ni  Ni7  1  0.866990  0.640655  0.866990  1
  Ni  Ni8  1  0.866990  0.133010  0.359345  1
  Ni  Ni9  1  0.866990  0.866990  0.640655  1
  Ni  Ni10  1  0.866990  0.640655  0.133010  1
  Ni  Ni11  1  0.866990  0.359345  0.866990  1
  Ni  Ni12  1  0.133010  0.640655  0.866990  1
  Ni  Ni13  1  0.359345  0.866990  0.866990  1
  Ni  Ni14  1  0.866990  0.133010  0.640655  1
  Ni  Ni15  1  0.866990  0.866990  0.359345  1
  Ni  Ni16  1  0.640655  0.133010  0.866990  1
  Ni  Ni17  1  0.133010  0.866990  0.640655  1
  Ni  Ni18  1  0.640655  0.866990  0.133010  1
  Ni  Ni19  1  0.359345  0.133010  0.133010  1
  Ni  Ni20  1  0.133010  0.133010  0.359345  1
  Ni  Ni21  1  0.359345  0.866990  0.133010  1
  Ni  Ni22  1  0.640655  0.133010  0.133010  1
  Ni  Ni23  1  0.866990  0.359345  0.133010  1
  Ni  Ni24  1  0.133010  0.359345  0.866990  1
  Ni  Ni25  1  0.133010  0.133010  0.640655  1
  Ni  Ni26  1  0.133010  0.866990  0.359345  1
  Ni  Ni27  1  0.133010  0.359345  0.133010  1
  Ni  Ni28  1  0.000000  0.000000  0.000000  1
  Ni  Ni29  1  0.359345  0.133010  0.866990  1
  Ni  Ni30  1  0.640655  0.866990  0.866990  1
  S  S31  1  0.500000  0.000000  0.762471  1
  S  S32  1  0.000000  0.500000  0.762471  1
  S  S33  1  0.762471  0.000000  0.500000  1
  S  S34  1  0.500000  0.762471  0.000000  1
  S  S35  1  0.500000  0.237529  0.000000  1
  S  S36  1  0.237529  0.000000  0.500000  1
  S  S37  1  0.237529  0.500000  0.000000  1
  S  S38  1  0.000000  0.237529  0.500000  1
  S  S39  1  0.000000  0.762471  0.500000  1
  S  S40  1  0.000000  0.500000  0.237529  1
  S  S41  1  0.723483  0.723483  0.723483  1
  S  S42  1  0.723483  0.276517  0.723483  1
  S  S43  1  0.276517  0.723483  0.723483  1
  S  S44  1  0.723483  0.723483  0.276517  1
  S  S45  1  0.723483  0.276517  0.276517  1
  S  S46  1  0.276517  0.276517  0.723483  1
  S  S47  1  0.276517  0.723483  0.276517  1
  S  S48  1  0.276517  0.276517  0.276517  1
  S  S49  1  0.000000  0.761482  0.000000  1
  S  S50  1  0.238518  0.000000  0.000000  1
  S  S51  1  0.761482  0.000000  0.000000  1
  S  S52  1  0.000000  0.000000  0.761482  1
  S  S53  1  0.000000  0.000000  0.238518  1
  S  S54  1  0.000000  0.238518  0.000000  1
  S  S55  1  0.500000  0.500000  0.500000  1
  S  S56  1  0.762471  0.500000  0.000000  1
  S  S57  1  0.500000  0.000000  0.237529  1
