# generated using pymatgen
data_RbTlF3
_symmetry_space_group_name_H-M   'P 1'
_cell_length_a   6.64435063
_cell_length_b   9.29356495
_cell_length_c   13.38360174
_cell_angle_alpha   90.00000000
_cell_angle_beta   90.00000000
_cell_angle_gamma   90.00000000
_symmetry_Int_Tables_number   1
_chemical_formula_structural   RbTlF3
_chemical_formula_sum   'Rb8 Tl8 F24'
_cell_volume   826.43344765
_cell_formula_units_Z   8
loop_
 _symmetry_equiv_pos_site_id
 _symmetry_equiv_pos_as_xyz
  1  'x, y, z'
loop_
 _atom_site_type_symbol
 _atom_site_label
 _atom_site_symmetry_multiplicity
 _atom_site_fract_x
 _atom_site_fract_y
 _atom_site_fract_z
 _atom_site_occupancy
  Rb  Rb0  1  0.244528  0.000000  0.882070  1
  Rb  Rb1  1  0.744528  0.000000  0.617930  1
  Rb  Rb2  1  0.755472  0.000000  0.117930  1
  Rb  Rb3  1  0.255472  0.000000  0.382070  1
  Rb  Rb4  1  0.222135  0.500000  0.869458  1
  Rb  Rb5  1  0.722135  0.500000  0.630542  1
  Rb  Rb6  1  0.777865  0.500000  0.130542  1
  Rb  Rb7  1  0.277865  0.500000  0.369458  1
  Tl  Tl8  1  0.742868  0.250181  0.874592  1
  Tl  Tl9  1  0.242868  0.749819  0.625408  1
  Tl  Tl10  1  0.257132  0.250181  0.125408  1
  Tl  Tl11  1  0.757132  0.749819  0.374592  1
  Tl  Tl12  1  0.257132  0.749819  0.125408  1
  Tl  Tl13  1  0.757132  0.250181  0.374592  1
  Tl  Tl14  1  0.742868  0.749819  0.874592  1
  Tl  Tl15  1  0.242868  0.250181  0.625408  1
  F  F16  1  0.755177  0.000000  0.832891  1
  F  F17  1  0.255177  0.000000  0.667109  1
  F  F18  1  0.244823  0.000000  0.167109  1
  F  F19  1  0.744823  0.000000  0.332891  1
  F  F20  1  0.754448  0.500000  0.916324  1
  F  F21  1  0.254448  0.500000  0.583676  1
  F  F22  1  0.245552  0.500000  0.083676  1
  F  F23  1  0.745552  0.500000  0.416324  1
  F  F24  1  0.977386  0.298924  0.742020  1
  F  F25  1  0.477386  0.701076  0.757980  1
  F  F26  1  0.022614  0.298924  0.257980  1
  F  F27  1  0.522614  0.701076  0.242020  1
  F  F28  1  0.022614  0.701076  0.257980  1
  F  F29  1  0.522614  0.298924  0.242020  1
  F  F30  1  0.977386  0.701076  0.742020  1
  F  F31  1  0.477386  0.298924  0.757980  1
  F  F32  1  0.000000  0.194209  0.500000  1
  F  F33  1  0.500000  0.805791  0.000000  1
  F  F34  1  0.000000  0.805791  0.500000  1
  F  F35  1  0.500000  0.194209  0.000000  1
  F  F36  1  0.000000  0.210447  0.000000  1
  F  F37  1  0.500000  0.789553  0.500000  1
  F  F38  1  0.000000  0.789553  0.000000  1
  F  F39  1  0.500000  0.210447  0.500000  1
