# generated using pymatgen
data_LaOsN3
_symmetry_space_group_name_H-M   'P 1'
_cell_length_a   4.84373756
_cell_length_b   10.24957687
_cell_length_c   7.21838451
_cell_angle_alpha   90.00000000
_cell_angle_beta   108.73955584
_cell_angle_gamma   90.00000000
_symmetry_Int_Tables_number   1
_chemical_formula_structural   LaOsN3
_chemical_formula_sum   'La4 Os4 N12'
_cell_volume   339.36836375
_cell_formula_units_Z   4
loop_
 _symmetry_equiv_pos_site_id
 _symmetry_equiv_pos_as_xyz
  1  'x, y, z'
loop_
 _atom_site_type_symbol
 _atom_site_label
 _atom_site_symmetry_multiplicity
 _atom_site_fract_x
 _atom_site_fract_y
 _atom_site_fract_z
 _atom_site_occupancy
  La  La0  1  0.245981  0.333351  0.523332  1
  La  La1  1  0.754019  0.666649  0.476668  1
  La  La2  1  0.245981  0.166649  0.023332  1
  La  La3  1  0.754019  0.833351  0.976668  1
  Os  Os4  1  0.690502  0.070453  0.650976  1
  Os  Os5  1  0.309498  0.570453  0.849024  1
  Os  Os6  1  0.690502  0.429547  0.150976  1
  Os  Os7  1  0.309498  0.929547  0.349024  1
  N  N8  1  0.303369  0.915535  0.095345  1
  N  N9  1  0.696631  0.084465  0.904655  1
  N  N10  1  0.016410  0.346256  0.163132  1
  N  N11  1  0.617104  0.884674  0.595130  1
  N  N12  1  0.382896  0.384674  0.904870  1
  N  N13  1  0.382896  0.115326  0.404870  1
  N  N14  1  0.983590  0.653744  0.836868  1
  N  N15  1  0.303369  0.584465  0.595345  1
  N  N16  1  0.617104  0.615326  0.095130  1
  N  N17  1  0.016410  0.153744  0.663132  1
  N  N18  1  0.696631  0.415535  0.404655  1
  N  N19  1  0.983590  0.846256  0.336868  1
