# generated using pymatgen
data_Li6PS5I
_symmetry_space_group_name_H-M   'P 1'
_cell_length_a   7.29061810
_cell_length_b   7.29061810
_cell_length_c   12.39791161
_cell_angle_alpha   73.21110830
_cell_angle_beta   106.78889170
_cell_angle_gamma   119.98746972
_symmetry_Int_Tables_number   1
_chemical_formula_structural   Li6PS5I
_chemical_formula_sum   'Li12 P2 S10 I2'
_cell_volume   538.08491170
_cell_formula_units_Z   2
loop_
 _symmetry_equiv_pos_site_id
 _symmetry_equiv_pos_as_xyz
  1  'x, y, z'
loop_
 _atom_site_type_symbol
 _atom_site_label
 _atom_site_symmetry_multiplicity
 _atom_site_fract_x
 _atom_site_fract_y
 _atom_site_fract_z
 _atom_site_occupancy
  Li  Li0  1  0.053414  0.021871  0.365907  1
  Li  Li1  1  0.978129  0.946586  0.865907  1
  Li  Li2  1  0.580975  0.551979  0.846752  1
  Li  Li3  1  0.448021  0.419025  0.346752  1
  Li  Li4  1  0.669598  0.286299  0.110663  1
  Li  Li5  1  0.713701  0.330402  0.610663  1
  Li  Li6  1  0.548550  0.971137  0.441352  1
  Li  Li7  1  0.028863  0.451450  0.941352  1
  Li  Li8  1  0.724344  0.707229  0.111405  1
  Li  Li9  1  0.292771  0.275656  0.611405  1
  Li  Li10  1  0.225128  0.788319  0.618561  1
  Li  Li11  1  0.211681  0.774872  0.118561  1
  P  P12  1  0.507387  0.002108  0.879079  1
  P  P13  1  0.997892  0.492613  0.379079  1
  S  S14  1  0.826154  0.206302  0.318297  1
  S  S15  1  0.793698  0.173846  0.818297  1
  S  S16  1  0.329656  0.708000  0.825420  1
  S  S17  1  0.292000  0.670344  0.325420  1
  S  S18  1  0.563314  0.947960  0.055405  1
  S  S19  1  0.052040  0.436686  0.555405  1
  S  S20  1  0.876297  0.622811  0.001044  1
  S  S21  1  0.377189  0.123703  0.501044  1
  S  S22  1  0.821584  0.661927  0.320842  1
  S  S23  1  0.338073  0.178416  0.820842  1
  I  I24  1  0.267616  0.258076  0.132871  1
  I  I25  1  0.741924  0.732384  0.632871  1
