# generated using pymatgen
data_Ge3Te
_symmetry_space_group_name_H-M   'P 1'
_cell_length_a   6.10893947
_cell_length_b   6.10893947
_cell_length_c   6.10893947
_cell_angle_alpha   140.54224317
_cell_angle_beta   140.54224317
_cell_angle_gamma   57.03089790
_symmetry_Int_Tables_number   1
_chemical_formula_structural   Ge3Te
_chemical_formula_sum   'Ge3 Te1'
_cell_volume   91.31021720
_cell_formula_units_Z   1
loop_
 _symmetry_equiv_pos_site_id
 _symmetry_equiv_pos_as_xyz
  1  'x, y, z'
loop_
 _atom_site_type_symbol
 _atom_site_label
 _atom_site_symmetry_multiplicity
 _atom_site_fract_x
 _atom_site_fract_y
 _atom_site_fract_z
 _atom_site_occupancy
  Ge  Ge0  1  0.250000  0.750000  0.500000  1
  Ge  Ge1  1  0.750000  0.250000  0.500000  1
  Ge  Ge2  1  0.500000  0.500000  0.000000  1
  Te  Te3  1  0.000000  0.000000  0.000000  1
