# generated using pymatgen
data_AlCr2C
_symmetry_space_group_name_H-M   'P 1'
_cell_length_a   2.84300422
_cell_length_b   2.84300422
_cell_length_c   12.70795553
_cell_angle_alpha   90.00000000
_cell_angle_beta   90.00000000
_cell_angle_gamma   120.00000000
_symmetry_Int_Tables_number   1
_chemical_formula_structural   AlCr2C
_chemical_formula_sum   'Al2 Cr4 C2'
_cell_volume   88.95314902
_cell_formula_units_Z   2
loop_
 _symmetry_equiv_pos_site_id
 _symmetry_equiv_pos_as_xyz
  1  'x, y, z'
loop_
 _atom_site_type_symbol
 _atom_site_label
 _atom_site_symmetry_multiplicity
 _atom_site_fract_x
 _atom_site_fract_y
 _atom_site_fract_z
 _atom_site_occupancy
  Al  Al0  1  0.666667  0.333333  0.250000  1
  Al  Al1  1  0.333333  0.666667  0.750000  1
  Cr  Cr2  1  0.333333  0.666667  0.415270  1
  Cr  Cr3  1  0.666667  0.333333  0.915270  1
  Cr  Cr4  1  0.666667  0.333333  0.584730  1
  Cr  Cr5  1  0.333333  0.666667  0.084730  1
  C  C6  1  0.000000  0.000000  0.500000  1
  C  C7  1  0.000000  0.000000  0.000000  1
