# generated using pymatgen
data_Ni3As
_symmetry_space_group_name_H-M   'P 1'
_cell_length_a   5.09400313
_cell_length_b   5.09400313
_cell_length_c   4.10956439
_cell_angle_alpha   90.00000000
_cell_angle_beta   90.00000000
_cell_angle_gamma   120.00000000
_symmetry_Int_Tables_number   1
_chemical_formula_structural   Ni3As
_chemical_formula_sum   'Ni6 As2'
_cell_volume   92.35168747
_cell_formula_units_Z   2
loop_
 _symmetry_equiv_pos_site_id
 _symmetry_equiv_pos_as_xyz
  1  'x, y, z'
loop_
 _atom_site_type_symbol
 _atom_site_label
 _atom_site_symmetry_multiplicity
 _atom_site_fract_x
 _atom_site_fract_y
 _atom_site_fract_z
 _atom_site_occupancy
  Ni  Ni0  1  0.167062  0.334124  0.250000  1
  Ni  Ni1  1  0.665876  0.832938  0.250000  1
  Ni  Ni2  1  0.167062  0.832938  0.250000  1
  Ni  Ni3  1  0.832938  0.665876  0.750000  1
  Ni  Ni4  1  0.334124  0.167062  0.750000  1
  Ni  Ni5  1  0.832938  0.167062  0.750000  1
  As  As6  1  0.333333  0.666667  0.750000  1
  As  As7  1  0.666667  0.333333  0.250000  1
