# generated using pymatgen
data_ScAl3
_symmetry_space_group_name_H-M   'P 1'
_cell_length_a   5.25997663
_cell_length_b   5.25997663
_cell_length_c   5.25997663
_cell_angle_alpha   135.00261130
_cell_angle_beta   135.00261130
_cell_angle_gamma   65.52614214
_symmetry_Int_Tables_number   1
_chemical_formula_structural   ScAl3
_chemical_formula_sum   'Sc1 Al3'
_cell_volume   71.67956585
_cell_formula_units_Z   1
loop_
 _symmetry_equiv_pos_site_id
 _symmetry_equiv_pos_as_xyz
  1  'x, y, z'
loop_
 _atom_site_type_symbol
 _atom_site_label
 _atom_site_symmetry_multiplicity
 _atom_site_fract_x
 _atom_site_fract_y
 _atom_site_fract_z
 _atom_site_occupancy
  Sc  Sc0  1  0.000000  0.000000  0.000000  1
  Al  Al1  1  0.750000  0.250000  0.500000  1
  Al  Al2  1  0.250000  0.750000  0.500000  1
  Al  Al3  1  0.500000  0.500000  0.000000  1
