# generated using pymatgen
data_ThMg3
_symmetry_space_group_name_H-M   'P 1'
_cell_length_a   6.78487282
_cell_length_b   6.78487282
_cell_length_c   5.22153003
_cell_angle_alpha   90.00000000
_cell_angle_beta   90.00000000
_cell_angle_gamma   120.00000000
_symmetry_Int_Tables_number   1
_chemical_formula_structural   ThMg3
_chemical_formula_sum   'Th2 Mg6'
_cell_volume   208.16697666
_cell_formula_units_Z   2
loop_
 _symmetry_equiv_pos_site_id
 _symmetry_equiv_pos_as_xyz
  1  'x, y, z'
loop_
 _atom_site_type_symbol
 _atom_site_label
 _atom_site_symmetry_multiplicity
 _atom_site_fract_x
 _atom_site_fract_y
 _atom_site_fract_z
 _atom_site_occupancy
  Th  Th0  1  0.666667  0.333333  0.250000  1
  Th  Th1  1  0.333333  0.666667  0.750000  1
  Mg  Mg2  1  0.160779  0.321558  0.250000  1
  Mg  Mg3  1  0.160779  0.839221  0.250000  1
  Mg  Mg4  1  0.678442  0.839221  0.250000  1
  Mg  Mg5  1  0.321558  0.160779  0.750000  1
  Mg  Mg6  1  0.839221  0.160779  0.750000  1
  Mg  Mg7  1  0.839221  0.678442  0.750000  1
