# generated using pymatgen
data_Si3Mo
_symmetry_space_group_name_H-M   'P 1'
_cell_length_a   5.21028436
_cell_length_b   5.21028436
_cell_length_c   4.84001852
_cell_angle_alpha   90.00000000
_cell_angle_beta   90.00000000
_cell_angle_gamma   120.00000000
_symmetry_Int_Tables_number   1
_chemical_formula_structural   Si3Mo
_chemical_formula_sum   'Si6 Mo2'
_cell_volume   113.78905966
_cell_formula_units_Z   2
loop_
 _symmetry_equiv_pos_site_id
 _symmetry_equiv_pos_as_xyz
  1  'x, y, z'
loop_
 _atom_site_type_symbol
 _atom_site_label
 _atom_site_symmetry_multiplicity
 _atom_site_fract_x
 _atom_site_fract_y
 _atom_site_fract_z
 _atom_site_occupancy
  Si  Si0  1  0.825421  0.174579  0.750000  1
  Si  Si1  1  0.349158  0.174579  0.750000  1
  Si  Si2  1  0.825421  0.650842  0.750000  1
  Si  Si3  1  0.174579  0.825421  0.250000  1
  Si  Si4  1  0.650842  0.825421  0.250000  1
  Si  Si5  1  0.174579  0.349158  0.250000  1
  Mo  Mo6  1  0.666667  0.333333  0.250000  1
  Mo  Mo7  1  0.333333  0.666667  0.750000  1
