# generated using pymatgen
data_K2NiAs2
_symmetry_space_group_name_H-M   'P 1'
_cell_length_a   7.77945546
_cell_length_b   7.77945546
_cell_length_c   5.79565240
_cell_angle_alpha   90.00000000
_cell_angle_beta   90.00000000
_cell_angle_gamma   129.44551452
_symmetry_Int_Tables_number   1
_chemical_formula_structural   K2NiAs2
_chemical_formula_sum   'K4 Ni2 As4'
_cell_volume   270.86126271
_cell_formula_units_Z   2
loop_
 _symmetry_equiv_pos_site_id
 _symmetry_equiv_pos_as_xyz
  1  'x, y, z'
loop_
 _atom_site_type_symbol
 _atom_site_label
 _atom_site_symmetry_multiplicity
 _atom_site_fract_x
 _atom_site_fract_y
 _atom_site_fract_z
 _atom_site_occupancy
  K  K0  1  0.207760  0.792240  0.750000  1
  K  K1  1  0.792240  0.207760  0.250000  1
  K  K2  1  0.589128  0.410872  0.750000  1
  K  K3  1  0.410872  0.589128  0.250000  1
  Ni  Ni4  1  0.000000  0.000000  0.000000  1
  Ni  Ni5  1  0.000000  0.000000  0.500000  1
  As  As6  1  0.714464  0.916326  0.750000  1
  As  As7  1  0.285536  0.083674  0.250000  1
  As  As8  1  0.916326  0.714464  0.250000  1
  As  As9  1  0.083674  0.285536  0.750000  1
