# generated using pymatgen
data_Ba(Sb3Ru)4
_symmetry_space_group_name_H-M   'P 1'
_cell_length_a   8.17370835
_cell_length_b   8.17370835
_cell_length_c   8.17370835
_cell_angle_alpha   109.47122063
_cell_angle_beta   109.47122063
_cell_angle_gamma   109.47122063
_symmetry_Int_Tables_number   1
_chemical_formula_structural   Ba(Sb3Ru)4
_chemical_formula_sum   'Ba1 Sb12 Ru4'
_cell_volume   420.37368479
_cell_formula_units_Z   1
loop_
 _symmetry_equiv_pos_site_id
 _symmetry_equiv_pos_as_xyz
  1  'x, y, z'
loop_
 _atom_site_type_symbol
 _atom_site_label
 _atom_site_symmetry_multiplicity
 _atom_site_fract_x
 _atom_site_fract_y
 _atom_site_fract_z
 _atom_site_occupancy
  Ba  Ba0  1  0.000000  0.000000  0.000000  1
  Sb  Sb1  1  0.656085  0.160424  0.816509  1
  Sb  Sb2  1  0.343915  0.160424  0.504339  1
  Sb  Sb3  1  0.839576  0.495661  0.656085  1
  Sb  Sb4  1  0.183491  0.343915  0.839576  1
  Sb  Sb5  1  0.160424  0.816509  0.656085  1
  Sb  Sb6  1  0.495661  0.656085  0.839576  1
  Sb  Sb7  1  0.839576  0.183491  0.343915  1
  Sb  Sb8  1  0.816509  0.656085  0.160424  1
  Sb  Sb9  1  0.504339  0.343915  0.160424  1
  Sb  Sb10  1  0.160424  0.504339  0.343915  1
  Sb  Sb11  1  0.656085  0.839576  0.495661  1
  Sb  Sb12  1  0.343915  0.839576  0.183491  1
  Ru  Ru13  1  0.500000  0.500000  0.500000  1
  Ru  Ru14  1  0.500000  1.000000  1.000000  1
  Ru  Ru15  1  1.000000  0.500000  0.000000  1
  Ru  Ru16  1  1.000000  1.000000  0.500000  1
