# generated using pymatgen
data_RbInBr3
_symmetry_space_group_name_H-M   'P 1'
_cell_length_a   5.73561739
_cell_length_b   5.73561739
_cell_length_c   5.73371403
_cell_angle_alpha   89.92560178
_cell_angle_beta   90.07439822
_cell_angle_gamma   89.92772407
_symmetry_Int_Tables_number   1
_chemical_formula_structural   RbInBr3
_chemical_formula_sum   'Rb1 In1 Br3'
_cell_volume   188.62328096
_cell_formula_units_Z   1
loop_
 _symmetry_equiv_pos_site_id
 _symmetry_equiv_pos_as_xyz
  1  'x, y, z'
loop_
 _atom_site_type_symbol
 _atom_site_label
 _atom_site_symmetry_multiplicity
 _atom_site_fract_x
 _atom_site_fract_y
 _atom_site_fract_z
 _atom_site_occupancy
  Rb  Rb0  1  0.000982  0.999018  0.001420  1
  In  In1  1  0.504511  0.495489  0.516907  1
  Br  Br2  1  0.504515  0.999302  0.514597  1
  Br  Br3  1  0.494320  0.505680  0.015490  1
  Br  Br4  1  0.000698  0.495485  0.514597  1
