# generated using pymatgen
data_CuBiO2
_symmetry_space_group_name_H-M   'P 1'
_cell_length_a   6.74372811
_cell_length_b   6.74372811
_cell_length_c   6.74372811
_cell_angle_alpha   145.77922558
_cell_angle_beta   126.81929129
_cell_angle_gamma   64.77526409
_symmetry_Int_Tables_number   1
_chemical_formula_structural   CuBiO2
_chemical_formula_sum   'Cu2 Bi2 O4'
_cell_volume   136.42435129
_cell_formula_units_Z   2
loop_
 _symmetry_equiv_pos_site_id
 _symmetry_equiv_pos_as_xyz
  1  'x, y, z'
loop_
 _atom_site_type_symbol
 _atom_site_label
 _atom_site_symmetry_multiplicity
 _atom_site_fract_x
 _atom_site_fract_y
 _atom_site_fract_z
 _atom_site_occupancy
  Cu  Cu0  1  0.276254  1.000000  0.276254  1
  Cu  Cu1  1  0.723746  1.000000  0.723746  1
  Bi  Bi2  1  0.803668  0.303668  0.500000  1
  Bi  Bi3  1  0.196332  0.696332  0.500000  1
  O  O4  1  0.406068  0.160095  0.245974  1
  O  O5  1  0.914121  0.160095  0.754026  1
  O  O6  1  0.085879  0.839905  0.245974  1
  O  O7  1  0.593932  0.839905  0.754026  1
