# generated using pymatgen
data_Rb6AlSb3
_symmetry_space_group_name_H-M   'P 1'
_cell_length_a   10.91245478
_cell_length_b   6.33232486
_cell_length_c   12.54157954
_cell_angle_alpha   90.00000000
_cell_angle_beta   100.84162762
_cell_angle_gamma   90.00000000
_symmetry_Int_Tables_number   1
_chemical_formula_structural   Rb6AlSb3
_chemical_formula_sum   'Rb12 Al2 Sb6'
_cell_volume   851.16954930
_cell_formula_units_Z   2
loop_
 _symmetry_equiv_pos_site_id
 _symmetry_equiv_pos_as_xyz
  1  'x, y, z'
loop_
 _atom_site_type_symbol
 _atom_site_label
 _atom_site_symmetry_multiplicity
 _atom_site_fract_x
 _atom_site_fract_y
 _atom_site_fract_z
 _atom_site_occupancy
  Rb  Rb0  1  0.123376  0.750000  0.678066  1
  Rb  Rb1  1  0.876624  0.250000  0.321934  1
  Rb  Rb2  1  0.135311  0.750000  0.022799  1
  Rb  Rb3  1  0.864689  0.250000  0.977201  1
  Rb  Rb4  1  0.438415  0.750000  0.539645  1
  Rb  Rb5  1  0.561585  0.250000  0.460355  1
  Rb  Rb6  1  0.457896  0.750000  0.921949  1
  Rb  Rb7  1  0.542104  0.250000  0.078051  1
  Rb  Rb8  1  0.739718  0.750000  0.775691  1
  Rb  Rb9  1  0.260282  0.250000  0.224309  1
  Rb  Rb10  1  0.084285  0.750000  0.369137  1
  Rb  Rb11  1  0.915715  0.250000  0.630863  1
  Al  Al12  1  0.679006  0.750000  0.279513  1
  Al  Al13  1  0.320994  0.250000  0.720487  1
  Sb  Sb14  1  0.433126  0.750000  0.226185  1
  Sb  Sb15  1  0.566874  0.250000  0.773815  1
  Sb  Sb16  1  0.786546  0.750000  0.488274  1
  Sb  Sb17  1  0.213454  0.250000  0.511726  1
  Sb  Sb18  1  0.821307  0.750000  0.124359  1
  Sb  Sb19  1  0.178693  0.250000  0.875641  1
