# generated using pymatgen
data_SiAu3
_symmetry_space_group_name_H-M   'P 1'
_cell_length_a   5.83626899
_cell_length_b   5.83626899
_cell_length_c   4.73934620
_cell_angle_alpha   90.00000000
_cell_angle_beta   90.00000000
_cell_angle_gamma   120.00000000
_symmetry_Int_Tables_number   1
_chemical_formula_structural   SiAu3
_chemical_formula_sum   'Si2 Au6'
_cell_volume   139.80402194
_cell_formula_units_Z   2
loop_
 _symmetry_equiv_pos_site_id
 _symmetry_equiv_pos_as_xyz
  1  'x, y, z'
loop_
 _atom_site_type_symbol
 _atom_site_label
 _atom_site_symmetry_multiplicity
 _atom_site_fract_x
 _atom_site_fract_y
 _atom_site_fract_z
 _atom_site_occupancy
  Si  Si0  1  0.333333  0.666667  0.750000  1
  Si  Si1  1  0.666667  0.333333  0.250000  1
  Au  Au2  1  0.169183  0.338367  0.250000  1
  Au  Au3  1  0.661633  0.830817  0.250000  1
  Au  Au4  1  0.169183  0.830817  0.250000  1
  Au  Au5  1  0.830817  0.661633  0.750000  1
  Au  Au6  1  0.338367  0.169183  0.750000  1
  Au  Au7  1  0.830817  0.169183  0.750000  1
