# generated using pymatgen
data_RbAc3
_symmetry_space_group_name_H-M   'P 1'
_cell_length_a   8.39693513
_cell_length_b   8.39693513
_cell_length_c   6.58399141
_cell_angle_alpha   90.00000000
_cell_angle_beta   90.00000000
_cell_angle_gamma   120.00000000
_symmetry_Int_Tables_number   1
_chemical_formula_structural   RbAc3
_chemical_formula_sum   'Rb2 Ac6'
_cell_volume   402.03279711
_cell_formula_units_Z   2
loop_
 _symmetry_equiv_pos_site_id
 _symmetry_equiv_pos_as_xyz
  1  'x, y, z'
loop_
 _atom_site_type_symbol
 _atom_site_label
 _atom_site_symmetry_multiplicity
 _atom_site_fract_x
 _atom_site_fract_y
 _atom_site_fract_z
 _atom_site_occupancy
  Rb  Rb0  1  0.333333  0.666667  0.750000  1
  Rb  Rb1  1  0.666667  0.333333  0.250000  1
  Ac  Ac2  1  0.159299  0.318599  0.250000  1
  Ac  Ac3  1  0.681401  0.840701  0.250000  1
  Ac  Ac4  1  0.159299  0.840701  0.250000  1
  Ac  Ac5  1  0.840701  0.681401  0.750000  1
  Ac  Ac6  1  0.318599  0.159299  0.750000  1
  Ac  Ac7  1  0.840701  0.159299  0.750000  1
