# generated using pymatgen
data_LiGe
_symmetry_space_group_name_H-M   'P 1'
_cell_length_a   7.54633861
_cell_length_b   7.54633861
_cell_length_c   7.54633861
_cell_angle_alpha   98.44087450
_cell_angle_beta   98.44087450
_cell_angle_gamma   134.94458331
_symmetry_Int_Tables_number   1
_chemical_formula_structural   LiGe
_chemical_formula_sum   'Li8 Ge8'
_cell_volume   280.95825976
_cell_formula_units_Z   8
loop_
 _symmetry_equiv_pos_site_id
 _symmetry_equiv_pos_as_xyz
  1  'x, y, z'
loop_
 _atom_site_type_symbol
 _atom_site_label
 _atom_site_symmetry_multiplicity
 _atom_site_fract_x
 _atom_site_fract_y
 _atom_site_fract_z
 _atom_site_occupancy
  Li  Li0  1  0.120493  0.336853  0.056476  1
  Li  Li1  1  0.314017  0.870493  0.283640  1
  Li  Li2  1  0.586853  0.030377  0.716360  1
  Li  Li3  1  0.280377  0.064017  0.943524  1
  Li  Li4  1  0.129507  0.413147  0.443524  1
  Li  Li5  1  0.935983  0.879507  0.216360  1
  Li  Li6  1  0.663147  0.719623  0.783640  1
  Li  Li7  1  0.969623  0.685983  0.556476  1
  Ge  Ge8  1  0.628715  0.932953  0.090904  1
  Ge  Ge9  1  0.787812  0.378715  0.195762  1
  Ge  Ge10  1  0.182953  0.592050  0.804238  1
  Ge  Ge11  1  0.842050  0.537812  0.909096  1
  Ge  Ge12  1  0.621285  0.817047  0.409096  1
  Ge  Ge13  1  0.462188  0.371285  0.304238  1
  Ge  Ge14  1  0.067047  0.157950  0.695762  1
  Ge  Ge15  1  0.407950  0.212188  0.590904  1
