# generated using pymatgen
data_Nd3IrO7
_symmetry_space_group_name_H-M   'P 1'
_cell_length_a   6.65347193
_cell_length_b   6.65347193
_cell_length_c   7.60085295
_cell_angle_alpha   90.00000000
_cell_angle_beta   90.00000000
_cell_angle_gamma   111.09925318
_symmetry_Int_Tables_number   1
_chemical_formula_structural   Nd3IrO7
_chemical_formula_sum   'Nd6 Ir2 O14'
_cell_volume   313.92159121
_cell_formula_units_Z   2
loop_
 _symmetry_equiv_pos_site_id
 _symmetry_equiv_pos_as_xyz
  1  'x, y, z'
loop_
 _atom_site_type_symbol
 _atom_site_label
 _atom_site_symmetry_multiplicity
 _atom_site_fract_x
 _atom_site_fract_y
 _atom_site_fract_z
 _atom_site_occupancy
  Nd  Nd0  1  0.000000  0.000000  0.000000  1
  Nd  Nd1  1  0.000000  0.000000  0.500000  1
  Nd  Nd2  1  0.475232  0.920016  0.750000  1
  Nd  Nd3  1  0.524768  0.079984  0.250000  1
  Nd  Nd4  1  0.920016  0.475232  0.750000  1
  Nd  Nd5  1  0.079984  0.524768  0.250000  1
  Ir  Ir6  1  0.500000  0.500000  0.000000  1
  Ir  Ir7  1  0.500000  0.500000  0.500000  1
  O  O8  1  0.589380  0.589380  0.750000  1
  O  O9  1  0.410620  0.410620  0.250000  1
  O  O10  1  0.843891  0.107910  0.750000  1
  O  O11  1  0.156109  0.892090  0.250000  1
  O  O12  1  0.107910  0.843891  0.750000  1
  O  O13  1  0.892090  0.156109  0.250000  1
  O  O14  1  0.439745  0.187529  0.961722  1
  O  O15  1  0.560255  0.812471  0.461722  1
  O  O16  1  0.187529  0.439745  0.961722  1
  O  O17  1  0.812471  0.560255  0.461722  1
  O  O18  1  0.439745  0.187529  0.538278  1
  O  O19  1  0.560255  0.812471  0.038278  1
  O  O20  1  0.812471  0.560255  0.038278  1
  O  O21  1  0.187529  0.439745  0.538278  1
