# generated using pymatgen
data_BMo
_symmetry_space_group_name_H-M   'P 1'
_cell_length_a   4.55342521
_cell_length_b   4.55342521
_cell_length_c   3.09570808
_cell_angle_alpha   90.00000000
_cell_angle_beta   90.00000000
_cell_angle_gamma   139.32889247
_symmetry_Int_Tables_number   1
_chemical_formula_structural   BMo
_chemical_formula_sum   'B2 Mo2'
_cell_volume   41.83066913
_cell_formula_units_Z   2
loop_
 _symmetry_equiv_pos_site_id
 _symmetry_equiv_pos_as_xyz
  1  'x, y, z'
loop_
 _atom_site_type_symbol
 _atom_site_label
 _atom_site_symmetry_multiplicity
 _atom_site_fract_x
 _atom_site_fract_y
 _atom_site_fract_z
 _atom_site_occupancy
  B  B0  1  0.559466  0.440534  0.750000  1
  B  B1  1  0.440534  0.559466  0.250000  1
  Mo  Mo2  1  0.855687  0.144313  0.750000  1
  Mo  Mo3  1  0.144313  0.855687  0.250000  1
