# generated using pymatgen
data_ZnP
_symmetry_space_group_name_H-M   'P 1'
_cell_length_a   3.63465627
_cell_length_b   3.63465627
_cell_length_c   6.91407102
_cell_angle_alpha   90.00000000
_cell_angle_beta   90.00000000
_cell_angle_gamma   120.00000000
_symmetry_Int_Tables_number   1
_chemical_formula_structural   ZnP
_chemical_formula_sum   'Zn2 P2'
_cell_volume   79.10267294
_cell_formula_units_Z   2
loop_
 _symmetry_equiv_pos_site_id
 _symmetry_equiv_pos_as_xyz
  1  'x, y, z'
loop_
 _atom_site_type_symbol
 _atom_site_label
 _atom_site_symmetry_multiplicity
 _atom_site_fract_x
 _atom_site_fract_y
 _atom_site_fract_z
 _atom_site_occupancy
  Zn  Zn0  1  0.333333  0.666667  0.355840  1
  Zn  Zn1  1  0.666667  0.333333  0.855840  1
  P  P2  1  0.333333  0.666667  0.019160  1
  P  P3  1  0.666667  0.333333  0.519160  1
