# generated using pymatgen
data_NdH3
_symmetry_space_group_name_H-M   'P 1'
_cell_length_a   6.66663327
_cell_length_b   6.66663327
_cell_length_c   6.91380759
_cell_angle_alpha   90.00000000
_cell_angle_beta   90.00000000
_cell_angle_gamma   120.00000000
_symmetry_Int_Tables_number   1
_chemical_formula_structural   NdH3
_chemical_formula_sum   'Nd6 H18'
_cell_volume   266.10991167
_cell_formula_units_Z   6
loop_
 _symmetry_equiv_pos_site_id
 _symmetry_equiv_pos_as_xyz
  1  'x, y, z'
loop_
 _atom_site_type_symbol
 _atom_site_label
 _atom_site_symmetry_multiplicity
 _atom_site_fract_x
 _atom_site_fract_y
 _atom_site_fract_z
 _atom_site_occupancy
  Nd  Nd0  1  0.663816  0.000000  0.250000  1
  Nd  Nd1  1  0.000000  0.663816  0.250000  1
  Nd  Nd2  1  0.336184  0.336184  0.250000  1
  Nd  Nd3  1  0.663816  0.663816  0.750000  1
  Nd  Nd4  1  0.000000  0.336184  0.750000  1
  Nd  Nd5  1  0.336184  0.000000  0.750000  1
  H  H6  1  0.677968  0.653000  0.094278  1
  H  H7  1  0.347000  0.024968  0.094278  1
  H  H8  1  0.975032  0.322032  0.094278  1
  H  H9  1  0.333333  0.666667  0.179787  1
  H  H10  1  0.000000  0.000000  0.250000  1
  H  H11  1  0.666667  0.333333  0.320213  1
  H  H12  1  0.024968  0.347000  0.405722  1
  H  H13  1  0.322032  0.975032  0.405722  1
  H  H14  1  0.653000  0.677968  0.405722  1
  H  H15  1  0.677968  0.024968  0.594278  1
  H  H16  1  0.347000  0.322032  0.594278  1
  H  H17  1  0.975032  0.653000  0.594278  1
  H  H18  1  0.333333  0.666667  0.679787  1
  H  H19  1  0.000000  0.000000  0.750000  1
  H  H20  1  0.666667  0.333333  0.820213  1
  H  H21  1  0.024968  0.677968  0.905722  1
  H  H22  1  0.653000  0.975032  0.905722  1
  H  H23  1  0.322032  0.347000  0.905722  1
