# generated using pymatgen
data_TbCuGe
_symmetry_space_group_name_H-M   'P 1'
_cell_length_a   4.26802819
_cell_length_b   4.26802819
_cell_length_c   7.31193383
_cell_angle_alpha   90.00000000
_cell_angle_beta   90.00000000
_cell_angle_gamma   120.00000000
_symmetry_Int_Tables_number   1
_chemical_formula_structural   TbCuGe
_chemical_formula_sum   'Tb2 Cu2 Ge2'
_cell_volume   115.34995868
_cell_formula_units_Z   2
loop_
 _symmetry_equiv_pos_site_id
 _symmetry_equiv_pos_as_xyz
  1  'x, y, z'
loop_
 _atom_site_type_symbol
 _atom_site_label
 _atom_site_symmetry_multiplicity
 _atom_site_fract_x
 _atom_site_fract_y
 _atom_site_fract_z
 _atom_site_occupancy
  Tb  Tb0  1  0.000000  0.000000  0.752049  1
  Tb  Tb1  1  0.000000  0.000000  0.252049  1
  Cu  Cu2  1  0.666667  0.333333  0.529567  1
  Cu  Cu3  1  0.333333  0.666667  0.029567  1
  Ge  Ge4  1  0.333333  0.666667  0.478883  1
  Ge  Ge5  1  0.666667  0.333333  0.978883  1
