# generated using pymatgen
data_Th(CrB3)2
_symmetry_space_group_name_H-M   'P 1'
_cell_length_a   5.53872347
_cell_length_b   5.53872347
_cell_length_c   5.53872347
_cell_angle_alpha   147.29494797
_cell_angle_beta   107.26908472
_cell_angle_gamma   82.04919387
_symmetry_Int_Tables_number   1
_chemical_formula_structural   Th(CrB3)2
_chemical_formula_sum   'Th1 Cr2 B6'
_cell_volume   85.59785690
_cell_formula_units_Z   1
loop_
 _symmetry_equiv_pos_site_id
 _symmetry_equiv_pos_as_xyz
  1  'x, y, z'
loop_
 _atom_site_type_symbol
 _atom_site_label
 _atom_site_symmetry_multiplicity
 _atom_site_fract_x
 _atom_site_fract_y
 _atom_site_fract_z
 _atom_site_occupancy
  Th  Th0  1  0.000000  0.000000  0.000000  1
  Cr  Cr1  1  0.345725  0.845725  0.500000  1
  Cr  Cr2  1  0.654275  0.154275  0.500000  1
  B  B3  1  0.933041  0.696344  0.236697  1
  B  B4  1  0.066959  0.303656  0.763303  1
  B  B5  1  0.540353  0.303656  0.236697  1
  B  B6  1  0.358804  0.500000  0.858804  1
  B  B7  1  0.641196  0.500000  0.141196  1
  B  B8  1  0.459647  0.696344  0.763303  1
