# generated using pymatgen
data_CaMoN3
_symmetry_space_group_name_H-M   'P 1'
_cell_length_a   6.51477999
_cell_length_b   6.51477999
_cell_length_c   6.42467871
_cell_angle_alpha   75.69709474
_cell_angle_beta   104.30290526
_cell_angle_gamma   146.91472046
_symmetry_Int_Tables_number   1
_chemical_formula_structural   CaMoN3
_chemical_formula_sum   'Ca2 Mo2 N6'
_cell_volume   143.82349971
_cell_formula_units_Z   2
loop_
 _symmetry_equiv_pos_site_id
 _symmetry_equiv_pos_as_xyz
  1  'x, y, z'
loop_
 _atom_site_type_symbol
 _atom_site_label
 _atom_site_symmetry_multiplicity
 _atom_site_fract_x
 _atom_site_fract_y
 _atom_site_fract_z
 _atom_site_occupancy
  Ca  Ca0  1  0.623930  0.376070  0.331350  1
  Ca  Ca1  1  0.376070  0.623930  0.668650  1
  Mo  Mo2  1  0.848130  0.151870  0.142850  1
  Mo  Mo3  1  0.151870  0.848130  0.857150  1
  N  N4  1  0.321090  0.678910  0.011470  1
  N  N5  1  0.156180  0.843820  0.581330  1
  N  N6  1  0.999920  0.000080  0.894380  1
  N  N7  1  0.000080  0.999920  0.105620  1
  N  N8  1  0.678910  0.321090  0.988530  1
  N  N9  1  0.843820  0.156180  0.418670  1
