# generated using pymatgen
data_SrAs3
_symmetry_space_group_name_H-M   'P 1'
_cell_length_a   6.22501760
_cell_length_b   6.22501760
_cell_length_c   5.95348905
_cell_angle_alpha   72.26345391
_cell_angle_beta   107.73654609
_cell_angle_gamma   103.02026199
_symmetry_Int_Tables_number   1
_chemical_formula_structural   SrAs3
_chemical_formula_sum   'Sr2 As6'
_cell_volume   207.04815446
_cell_formula_units_Z   2
loop_
 _symmetry_equiv_pos_site_id
 _symmetry_equiv_pos_as_xyz
  1  'x, y, z'
loop_
 _atom_site_type_symbol
 _atom_site_label
 _atom_site_symmetry_multiplicity
 _atom_site_fract_x
 _atom_site_fract_y
 _atom_site_fract_z
 _atom_site_occupancy
  Sr  Sr0  1  0.335388  0.664612  0.667782  1
  Sr  Sr1  1  0.664612  0.335388  0.332218  1
  As  As2  1  0.593132  0.869506  0.195268  1
  As  As3  1  0.869506  0.593132  0.804732  1
  As  As4  1  0.005125  0.994875  0.214867  1
  As  As5  1  0.994875  0.005125  0.785133  1
  As  As6  1  0.130494  0.406868  0.195268  1
  As  As7  1  0.406868  0.130494  0.804732  1
