# generated using pymatgen
data_PbAuO2
_symmetry_space_group_name_H-M   'P 1'
_cell_length_a   6.59227781
_cell_length_b   6.59227781
_cell_length_c   6.58967850
_cell_angle_alpha   81.21530427
_cell_angle_beta   98.78469573
_cell_angle_gamma   147.83366256
_symmetry_Int_Tables_number   1
_chemical_formula_structural   PbAuO2
_chemical_formula_sum   'Pb2 Au2 O4'
_cell_volume   150.52198392
_cell_formula_units_Z   2
loop_
 _symmetry_equiv_pos_site_id
 _symmetry_equiv_pos_as_xyz
  1  'x, y, z'
loop_
 _atom_site_type_symbol
 _atom_site_label
 _atom_site_symmetry_multiplicity
 _atom_site_fract_x
 _atom_site_fract_y
 _atom_site_fract_z
 _atom_site_occupancy
  Pb  Pb0  1  0.500000  0.500000  0.000000  1
  Pb  Pb1  1  0.000000  0.000000  0.500000  1
  Au  Au2  1  0.749268  0.250732  0.786443  1
  Au  Au3  1  0.250732  0.749268  0.213557  1
  O  O4  1  0.413238  0.586762  0.268515  1
  O  O5  1  0.087852  0.912148  0.173947  1
  O  O6  1  0.586762  0.413238  0.731485  1
  O  O7  1  0.912148  0.087852  0.826053  1
