# generated using pymatgen
data_TlGeCl3
_symmetry_space_group_name_H-M   'P 1'
_cell_length_a   5.32810368
_cell_length_b   5.32810368
_cell_length_c   5.32192957
_cell_angle_alpha   89.22621258
_cell_angle_beta   90.77378742
_cell_angle_gamma   90.83809884
_symmetry_Int_Tables_number   1
_chemical_formula_structural   TlGeCl3
_chemical_formula_sum   'Tl1 Ge1 Cl3'
_cell_volume   151.03928282
_cell_formula_units_Z   1
loop_
 _symmetry_equiv_pos_site_id
 _symmetry_equiv_pos_as_xyz
  1  'x, y, z'
loop_
 _atom_site_type_symbol
 _atom_site_label
 _atom_site_symmetry_multiplicity
 _atom_site_fract_x
 _atom_site_fract_y
 _atom_site_fract_z
 _atom_site_occupancy
  Tl  Tl0  1  0.009242  0.990758  0.009017  1
  Ge  Ge1  1  0.517830  0.482170  0.467459  1
  Cl  Cl2  1  0.978312  0.498620  0.476890  1
  Cl  Cl3  1  0.495198  0.504802  0.005613  1
  Cl  Cl4  1  0.501380  0.021688  0.476890  1
