# generated using pymatgen
data_Si3B
_symmetry_space_group_name_H-M   'P 1'
_cell_length_a   5.01282517
_cell_length_b   5.01282517
_cell_length_c   4.45324395
_cell_angle_alpha   90.00000000
_cell_angle_beta   90.00000000
_cell_angle_gamma   120.00000000
_symmetry_Int_Tables_number   1
_chemical_formula_structural   Si3B
_chemical_formula_sum   'Si6 B2'
_cell_volume   96.91081257
_cell_formula_units_Z   2
loop_
 _symmetry_equiv_pos_site_id
 _symmetry_equiv_pos_as_xyz
  1  'x, y, z'
loop_
 _atom_site_type_symbol
 _atom_site_label
 _atom_site_symmetry_multiplicity
 _atom_site_fract_x
 _atom_site_fract_y
 _atom_site_fract_z
 _atom_site_occupancy
  Si  Si0  1  0.169138  0.338275  0.250000  1
  Si  Si1  1  0.661725  0.830862  0.250000  1
  Si  Si2  1  0.169138  0.830862  0.250000  1
  Si  Si3  1  0.830862  0.661725  0.750000  1
  Si  Si4  1  0.338275  0.169138  0.750000  1
  Si  Si5  1  0.830862  0.169138  0.750000  1
  B  B6  1  0.333333  0.666667  0.750000  1
  B  B7  1  0.666667  0.333333  0.250000  1
