# generated using pymatgen
data_Sr2MgGe2O7
_symmetry_space_group_name_H-M   'P 1'
_cell_length_a   8.26416478
_cell_length_b   8.26416478
_cell_length_c   5.37278757
_cell_angle_alpha   90.00000000
_cell_angle_beta   90.00000000
_cell_angle_gamma   90.00000000
_symmetry_Int_Tables_number   1
_chemical_formula_structural   Sr2MgGe2O7
_chemical_formula_sum   'Sr4 Mg2 Ge4 O14'
_cell_volume   366.94215382
_cell_formula_units_Z   2
loop_
 _symmetry_equiv_pos_site_id
 _symmetry_equiv_pos_as_xyz
  1  'x, y, z'
loop_
 _atom_site_type_symbol
 _atom_site_label
 _atom_site_symmetry_multiplicity
 _atom_site_fract_x
 _atom_site_fract_y
 _atom_site_fract_z
 _atom_site_occupancy
  Sr  Sr0  1  0.834868  0.665132  0.491865  1
  Sr  Sr1  1  0.165132  0.334868  0.491865  1
  Sr  Sr2  1  0.334868  0.834868  0.508135  1
  Sr  Sr3  1  0.665132  0.165132  0.508135  1
  Mg  Mg4  1  0.000000  0.000000  0.000000  1
  Mg  Mg5  1  0.500000  0.500000  0.000000  1
  Ge  Ge6  1  0.643263  0.856737  0.050463  1
  Ge  Ge7  1  0.356737  0.143263  0.050463  1
  Ge  Ge8  1  0.143263  0.643263  0.949537  1
  Ge  Ge9  1  0.856737  0.356737  0.949537  1
  O  O10  1  0.500000  0.000000  0.184328  1
  O  O11  1  0.822004  0.917639  0.206672  1
  O  O12  1  0.582361  0.677996  0.206672  1
  O  O13  1  0.417639  0.322004  0.206672  1
  O  O14  1  0.177996  0.082361  0.206672  1
  O  O15  1  0.138929  0.638929  0.273809  1
  O  O16  1  0.861071  0.361071  0.273809  1
  O  O17  1  0.638929  0.861071  0.726191  1
  O  O18  1  0.361071  0.138929  0.726191  1
  O  O19  1  0.082361  0.822004  0.793328  1
  O  O20  1  0.322004  0.582361  0.793328  1
  O  O21  1  0.677996  0.417639  0.793328  1
  O  O22  1  0.917639  0.177996  0.793328  1
  O  O23  1  0.000000  0.500000  0.815672  1
