# generated using pymatgen
data_Pa3Nb
_symmetry_space_group_name_H-M   'P 1'
_cell_length_a   6.23720819
_cell_length_b   6.23720819
_cell_length_c   5.60916627
_cell_angle_alpha   90.00000000
_cell_angle_beta   90.00000000
_cell_angle_gamma   120.00000000
_symmetry_Int_Tables_number   1
_chemical_formula_structural   Pa3Nb
_chemical_formula_sum   'Pa6 Nb2'
_cell_volume   188.97720736
_cell_formula_units_Z   2
loop_
 _symmetry_equiv_pos_site_id
 _symmetry_equiv_pos_as_xyz
  1  'x, y, z'
loop_
 _atom_site_type_symbol
 _atom_site_label
 _atom_site_symmetry_multiplicity
 _atom_site_fract_x
 _atom_site_fract_y
 _atom_site_fract_z
 _atom_site_occupancy
  Pa  Pa0  1  0.172821  0.345642  0.250000  1
  Pa  Pa1  1  0.654358  0.827179  0.250000  1
  Pa  Pa2  1  0.172821  0.827179  0.250000  1
  Pa  Pa3  1  0.827179  0.654358  0.750000  1
  Pa  Pa4  1  0.345642  0.172821  0.750000  1
  Pa  Pa5  1  0.827179  0.172821  0.750000  1
  Nb  Nb6  1  0.333333  0.666667  0.750000  1
  Nb  Nb7  1  0.666667  0.333333  0.250000  1
