# generated using pymatgen
data_Sc6Ga16Ru7
_symmetry_space_group_name_H-M   'P 1'
_cell_length_a   8.79226924
_cell_length_b   8.79226924
_cell_length_c   8.79226924
_cell_angle_alpha   60.00000000
_cell_angle_beta   60.00000000
_cell_angle_gamma   60.00000000
_symmetry_Int_Tables_number   1
_chemical_formula_structural   Sc6Ga16Ru7
_chemical_formula_sum   'Sc6 Ga16 Ru7'
_cell_volume   480.60461638
_cell_formula_units_Z   1
loop_
 _symmetry_equiv_pos_site_id
 _symmetry_equiv_pos_as_xyz
  1  'x, y, z'
loop_
 _atom_site_type_symbol
 _atom_site_label
 _atom_site_symmetry_multiplicity
 _atom_site_fract_x
 _atom_site_fract_y
 _atom_site_fract_z
 _atom_site_occupancy
  Sc  Sc0  1  0.720173  0.279827  0.279827  1
  Sc  Sc1  1  0.279827  0.720173  0.720173  1
  Sc  Sc2  1  0.279827  0.279827  0.720173  1
  Sc  Sc3  1  0.720173  0.279827  0.720173  1
  Sc  Sc4  1  0.720173  0.720173  0.279827  1
  Sc  Sc5  1  0.279827  0.720173  0.279827  1
  Ga  Ga6  1  0.655753  0.655753  0.655753  1
  Ga  Ga7  1  0.655753  0.032742  0.655753  1
  Ga  Ga8  1  0.655753  0.655753  0.032742  1
  Ga  Ga9  1  0.032742  0.655753  0.655753  1
  Ga  Ga10  1  0.344247  0.967258  0.344247  1
  Ga  Ga11  1  0.344247  0.344247  0.344247  1
  Ga  Ga12  1  0.967258  0.344247  0.344247  1
  Ga  Ga13  1  0.344247  0.344247  0.967258  1
  Ga  Ga14  1  0.876459  0.370623  0.876459  1
  Ga  Ga15  1  0.876459  0.876459  0.876459  1
  Ga  Ga16  1  0.876459  0.876459  0.370623  1
  Ga  Ga17  1  0.370623  0.876459  0.876459  1
  Ga  Ga18  1  0.123541  0.629377  0.123541  1
  Ga  Ga19  1  0.123541  0.123541  0.123541  1
  Ga  Ga20  1  0.629377  0.123541  0.123541  1
  Ga  Ga21  1  0.123541  0.123541  0.629377  1
  Ru  Ru22  1  1.000000  0.500000  0.500000  1
  Ru  Ru23  1  0.500000  0.000000  1.000000  1
  Ru  Ru24  1  0.500000  0.500000  0.000000  1
  Ru  Ru25  1  1.000000  0.500000  0.000000  1
  Ru  Ru26  1  1.000000  0.000000  0.500000  1
  Ru  Ru27  1  0.500000  1.000000  0.500000  1
  Ru  Ru28  1  1.000000  0.000000  0.000000  1
