# generated using pymatgen
data_La4Au2O9
_symmetry_space_group_name_H-M   'P 1'
_cell_length_a   6.37924880
_cell_length_b   12.19703117
_cell_length_c   12.20597331
_cell_angle_alpha   90.00000000
_cell_angle_beta   90.00000000
_cell_angle_gamma   90.00000000
_symmetry_Int_Tables_number   1
_chemical_formula_structural   La4Au2O9
_chemical_formula_sum   'La16 Au8 O36'
_cell_volume   949.72110743
_cell_formula_units_Z   4
loop_
 _symmetry_equiv_pos_site_id
 _symmetry_equiv_pos_as_xyz
  1  'x, y, z'
loop_
 _atom_site_type_symbol
 _atom_site_label
 _atom_site_symmetry_multiplicity
 _atom_site_fract_x
 _atom_site_fract_y
 _atom_site_fract_z
 _atom_site_occupancy
  La  La0  1  0.742935  0.089019  0.010299  1
  La  La1  1  0.742935  0.410981  0.989701  1
  La  La2  1  0.757065  0.589019  0.489701  1
  La  La3  1  0.757065  0.910981  0.510299  1
  La  La4  1  0.257065  0.910981  0.989701  1
  La  La5  1  0.257065  0.589019  0.010299  1
  La  La6  1  0.242935  0.410981  0.510299  1
  La  La7  1  0.242935  0.089019  0.489701  1
  La  La8  1  0.802979  0.263414  0.339932  1
  La  La9  1  0.802979  0.236586  0.660068  1
  La  La10  1  0.697021  0.763414  0.160068  1
  La  La11  1  0.697021  0.736586  0.839932  1
  La  La12  1  0.197021  0.736586  0.660068  1
  La  La13  1  0.197021  0.763414  0.339932  1
  La  La14  1  0.302979  0.236586  0.839932  1
  La  La15  1  0.302979  0.263414  0.160068  1
  Au  Au16  1  0.577750  0.010662  0.270212  1
  Au  Au17  1  0.577750  0.489338  0.729788  1
  Au  Au18  1  0.922250  0.510662  0.229788  1
  Au  Au19  1  0.922250  0.989338  0.770212  1
  Au  Au20  1  0.422250  0.989338  0.729788  1
  Au  Au21  1  0.422250  0.510662  0.270212  1
  Au  Au22  1  0.077750  0.489338  0.770212  1
  Au  Au23  1  0.077750  0.010662  0.229788  1
  O  O24  1  0.941598  0.446559  0.384326  1
  O  O25  1  0.941598  0.053441  0.615674  1
  O  O26  1  0.558402  0.946559  0.115674  1
  O  O27  1  0.558402  0.553441  0.884326  1
  O  O28  1  0.058402  0.553441  0.615674  1
  O  O29  1  0.058402  0.946559  0.384326  1
  O  O30  1  0.441598  0.053441  0.884326  1
  O  O31  1  0.441598  0.446559  0.115674  1
  O  O32  1  0.944152  0.354289  0.164571  1
  O  O33  1  0.944152  0.145711  0.835429  1
  O  O34  1  0.555848  0.854289  0.335429  1
  O  O35  1  0.555848  0.645711  0.664571  1
  O  O36  1  0.055848  0.645711  0.835429  1
  O  O37  1  0.055848  0.854289  0.164571  1
  O  O38  1  0.620778  0.157707  0.197854  1
  O  O39  1  0.444152  0.145711  0.664571  1
  O  O40  1  0.606716  0.085908  0.420500  1
  O  O41  1  0.606716  0.414092  0.579500  1
  O  O42  1  0.893284  0.585908  0.079500  1
  O  O43  1  0.893284  0.914092  0.920500  1
  O  O44  1  0.393284  0.914092  0.579500  1
  O  O45  1  0.393284  0.585908  0.420500  1
  O  O46  1  0.106716  0.414092  0.920500  1
  O  O47  1  0.106716  0.085908  0.079500  1
  O  O48  1  0.023072  0.250000  0.500000  1
  O  O49  1  0.476928  0.750000  0.000000  1
  O  O50  1  0.976928  0.750000  0.500000  1
  O  O51  1  0.523072  0.250000  0.000000  1
  O  O52  1  0.120778  0.157707  0.302146  1
  O  O53  1  0.120778  0.342293  0.697854  1
  O  O54  1  0.379222  0.657707  0.197854  1
  O  O55  1  0.379222  0.842293  0.802146  1
  O  O56  1  0.879222  0.842293  0.697854  1
  O  O57  1  0.879222  0.657707  0.302146  1
  O  O58  1  0.620778  0.342293  0.802146  1
  O  O59  1  0.444152  0.354289  0.335429  1
