# generated using pymatgen
data_Ho(CuO2)2
_symmetry_space_group_name_H-M   'P 1'
_cell_length_a   6.26178511
_cell_length_b   6.26178511
_cell_length_c   6.26178511
_cell_angle_alpha   126.12203350
_cell_angle_beta   126.12203350
_cell_angle_gamma   79.68766289
_symmetry_Int_Tables_number   1
_chemical_formula_structural   Ho(CuO2)2
_chemical_formula_sum   'Ho2 Cu4 O8'
_cell_volume   154.76569128
_cell_formula_units_Z   2
loop_
 _symmetry_equiv_pos_site_id
 _symmetry_equiv_pos_as_xyz
  1  'x, y, z'
loop_
 _atom_site_type_symbol
 _atom_site_label
 _atom_site_symmetry_multiplicity
 _atom_site_fract_x
 _atom_site_fract_y
 _atom_site_fract_z
 _atom_site_occupancy
  Ho  Ho0  1  0.000000  1.000000  0.000000  1
  Ho  Ho1  1  0.750000  0.250000  0.500000  1
  Cu  Cu2  1  0.875000  0.625000  0.250000  1
  Cu  Cu3  1  0.375000  0.625000  0.750000  1
  Cu  Cu4  1  0.375000  0.125000  0.750000  1
  Cu  Cu5  1  0.375000  0.625000  0.250000  1
  O  O6  1  0.404138  0.846203  0.145208  1
  O  O7  1  0.700995  0.258930  0.854792  1
  O  O8  1  0.345862  0.403797  0.354792  1
  O  O9  1  0.049005  0.991070  0.645208  1
  O  O10  1  0.008930  0.654138  0.057935  1
  O  O11  1  0.596203  0.950995  0.942065  1
  O  O12  1  0.153797  0.299005  0.557935  1
  O  O13  1  0.741070  0.595862  0.442065  1
