# generated using pymatgen
data_HgS
_symmetry_space_group_name_H-M   'P 1'
_cell_length_a   4.24541213
_cell_length_b   4.24541213
_cell_length_c   6.94405746
_cell_angle_alpha   90.00000000
_cell_angle_beta   90.00000000
_cell_angle_gamma   120.00000000
_symmetry_Int_Tables_number   1
_chemical_formula_structural   HgS
_chemical_formula_sum   'Hg2 S2'
_cell_volume   108.38861088
_cell_formula_units_Z   2
loop_
 _symmetry_equiv_pos_site_id
 _symmetry_equiv_pos_as_xyz
  1  'x, y, z'
loop_
 _atom_site_type_symbol
 _atom_site_label
 _atom_site_symmetry_multiplicity
 _atom_site_fract_x
 _atom_site_fract_y
 _atom_site_fract_z
 _atom_site_occupancy
  Hg  Hg0  1  0.333333  0.666667  0.999884  1
  Hg  Hg1  1  0.666667  0.333333  0.499884  1
  S  S2  1  0.333333  0.666667  0.375116  1
  S  S3  1  0.666667  0.333333  0.875116  1
