# generated using pymatgen
data_NbInO4
_symmetry_space_group_name_H-M   'P 1'
_cell_length_a   4.92079286
_cell_length_b   5.89693404
_cell_length_c   5.22350595
_cell_angle_alpha   90.00000000
_cell_angle_beta   90.90352281
_cell_angle_gamma   90.00000000
_symmetry_Int_Tables_number   1
_chemical_formula_structural   NbInO4
_chemical_formula_sum   'Nb2 In2 O8'
_cell_volume   151.55471315
_cell_formula_units_Z   2
loop_
 _symmetry_equiv_pos_site_id
 _symmetry_equiv_pos_as_xyz
  1  'x, y, z'
loop_
 _atom_site_type_symbol
 _atom_site_label
 _atom_site_symmetry_multiplicity
 _atom_site_fract_x
 _atom_site_fract_y
 _atom_site_fract_z
 _atom_site_occupancy
  Nb  Nb0  1  0.000000  0.178183  0.250000  1
  Nb  Nb1  1  0.000000  0.821817  0.750000  1
  In  In2  1  0.500000  0.680883  0.250000  1
  In  In3  1  0.500000  0.319117  0.750000  1
  O  O4  1  0.739731  0.619161  0.598245  1
  O  O5  1  0.260269  0.619161  0.901755  1
  O  O6  1  0.260269  0.380839  0.401755  1
  O  O7  1  0.739731  0.380839  0.098245  1
  O  O8  1  0.785614  0.103033  0.562695  1
  O  O9  1  0.214386  0.103033  0.937305  1
  O  O10  1  0.214386  0.896967  0.437305  1
  O  O11  1  0.785614  0.896967  0.062695  1
