# generated using pymatgen
data_Mg5Hg
_symmetry_space_group_name_H-M   'P 1'
_cell_length_a   6.02747472
_cell_length_b   6.02747472
_cell_length_c   6.02747472
_cell_angle_alpha   53.95754423
_cell_angle_beta   53.95754423
_cell_angle_gamma   53.95754423
_symmetry_Int_Tables_number   1
_chemical_formula_structural   Mg5Hg
_chemical_formula_sum   'Mg5 Hg1'
_cell_volume   132.98541939
_cell_formula_units_Z   1
loop_
 _symmetry_equiv_pos_site_id
 _symmetry_equiv_pos_as_xyz
  1  'x, y, z'
loop_
 _atom_site_type_symbol
 _atom_site_label
 _atom_site_symmetry_multiplicity
 _atom_site_fract_x
 _atom_site_fract_y
 _atom_site_fract_z
 _atom_site_occupancy
  Mg  Mg0  1  0.835320  0.500000  0.164680  1
  Mg  Mg1  1  0.500000  0.164680  0.835320  1
  Mg  Mg2  1  0.164680  0.835320  0.500000  1
  Mg  Mg3  1  0.667022  0.667022  0.667022  1
  Mg  Mg4  1  0.332978  0.332978  0.332978  1
  Hg  Hg5  1  0.000000  0.000000  0.000000  1
