# generated using pymatgen
data_KGeBr3
_symmetry_space_group_name_H-M   'P 1'
_cell_length_a   5.98758416
_cell_length_b   7.64571500
_cell_length_c   8.62357741
_cell_angle_alpha   90.00000000
_cell_angle_beta   110.24709438
_cell_angle_gamma   90.00000000
_symmetry_Int_Tables_number   1
_chemical_formula_structural   KGeBr3
_chemical_formula_sum   'K2 Ge2 Br6'
_cell_volume   370.38786098
_cell_formula_units_Z   2
loop_
 _symmetry_equiv_pos_site_id
 _symmetry_equiv_pos_as_xyz
  1  'x, y, z'
loop_
 _atom_site_type_symbol
 _atom_site_label
 _atom_site_symmetry_multiplicity
 _atom_site_fract_x
 _atom_site_fract_y
 _atom_site_fract_z
 _atom_site_occupancy
  K  K0  1  0.660688  0.750000  0.814010  1
  K  K1  1  0.339312  0.250000  0.185990  1
  Ge  Ge2  1  0.905416  0.750000  0.381591  1
  Ge  Ge3  1  0.094584  0.250000  0.618409  1
  Br  Br4  1  0.834021  0.000055  0.176496  1
  Br  Br5  1  0.165979  0.500055  0.823504  1
  Br  Br6  1  0.509612  0.250000  0.604765  1
  Br  Br7  1  0.490388  0.750000  0.395235  1
  Br  Br8  1  0.165979  0.999945  0.823504  1
  Br  Br9  1  0.834021  0.499945  0.176496  1
