# generated using pymatgen
data_NaBi3
_symmetry_space_group_name_H-M   'P 1'
_cell_length_a   7.01386315
_cell_length_b   7.01386315
_cell_length_c   5.76035028
_cell_angle_alpha   90.00000000
_cell_angle_beta   90.00000000
_cell_angle_gamma   120.00000000
_symmetry_Int_Tables_number   1
_chemical_formula_structural   NaBi3
_chemical_formula_sum   'Na2 Bi6'
_cell_volume   245.41104246
_cell_formula_units_Z   2
loop_
 _symmetry_equiv_pos_site_id
 _symmetry_equiv_pos_as_xyz
  1  'x, y, z'
loop_
 _atom_site_type_symbol
 _atom_site_label
 _atom_site_symmetry_multiplicity
 _atom_site_fract_x
 _atom_site_fract_y
 _atom_site_fract_z
 _atom_site_occupancy
  Na  Na0  1  0.333333  0.666667  0.750000  1
  Na  Na1  1  0.666667  0.333333  0.250000  1
  Bi  Bi2  1  0.332463  0.166231  0.750000  1
  Bi  Bi3  1  0.833769  0.667537  0.750000  1
  Bi  Bi4  1  0.166231  0.833769  0.250000  1
  Bi  Bi5  1  0.667537  0.833769  0.250000  1
  Bi  Bi6  1  0.166231  0.332463  0.250000  1
  Bi  Bi7  1  0.833769  0.166231  0.750000  1
