# generated using pymatgen
data_TlInCl3
_symmetry_space_group_name_H-M   'P 1'
_cell_length_a   5.41782724
_cell_length_b   5.41782724
_cell_length_c   5.41190045
_cell_angle_alpha   89.96435909
_cell_angle_beta   90.03564091
_cell_angle_gamma   89.94588991
_symmetry_Int_Tables_number   1
_chemical_formula_structural   TlInCl3
_chemical_formula_sum   'Tl1 In1 Cl3'
_cell_volume   158.85458093
_cell_formula_units_Z   1
loop_
 _symmetry_equiv_pos_site_id
 _symmetry_equiv_pos_as_xyz
  1  'x, y, z'
loop_
 _atom_site_type_symbol
 _atom_site_label
 _atom_site_symmetry_multiplicity
 _atom_site_fract_x
 _atom_site_fract_y
 _atom_site_fract_z
 _atom_site_occupancy
  Tl  Tl0  1  0.994143  0.005857  0.010020  1
  In  In1  1  0.502411  0.497589  0.486858  1
  Cl  Cl2  1  0.000827  0.496637  0.478167  1
  Cl  Cl3  1  0.508802  0.491198  0.984325  1
  Cl  Cl4  1  0.503363  0.999173  0.478167  1
