# generated using pymatgen
data_Si3MoPt2
_symmetry_space_group_name_H-M   'P 1'
_cell_length_a   3.51072382
_cell_length_b   5.53766744
_cell_length_c   9.25055202
_cell_angle_alpha   90.00000000
_cell_angle_beta   90.00000000
_cell_angle_gamma   90.00000000
_symmetry_Int_Tables_number   1
_chemical_formula_structural   Si3MoPt2
_chemical_formula_sum   'Si6 Mo2 Pt4'
_cell_volume   179.84202609
_cell_formula_units_Z   2
loop_
 _symmetry_equiv_pos_site_id
 _symmetry_equiv_pos_as_xyz
  1  'x, y, z'
loop_
 _atom_site_type_symbol
 _atom_site_label
 _atom_site_symmetry_multiplicity
 _atom_site_fract_x
 _atom_site_fract_y
 _atom_site_fract_z
 _atom_site_occupancy
  Si  Si0  1  0.500000  0.827550  0.435229  1
  Si  Si1  1  0.500000  0.816004  0.777489  1
  Si  Si2  1  0.000000  0.655516  0.126984  1
  Si  Si3  1  0.500000  0.327550  0.564771  1
  Si  Si4  1  0.500000  0.316004  0.222511  1
  Si  Si5  1  0.000000  0.155516  0.873016  1
  Mo  Mo6  1  0.000000  0.000374  0.605307  1
  Mo  Mo7  1  0.000000  0.500374  0.394693  1
  Pt  Pt8  1  0.000000  0.000206  0.285788  1
  Pt  Pt9  1  0.500000  0.999049  0.029825  1
  Pt  Pt10  1  0.000000  0.500206  0.714212  1
  Pt  Pt11  1  0.500000  0.499049  0.970175  1
