# generated using pymatgen
data_GaP
_symmetry_space_group_name_H-M   'P 1'
_cell_length_a   3.70784243
_cell_length_b   3.70784243
_cell_length_c   3.70784243
_cell_angle_alpha   134.27054694
_cell_angle_beta   101.18623496
_cell_angle_gamma   96.19738804
_symmetry_Int_Tables_number   1
_chemical_formula_structural   GaP
_chemical_formula_sum   'Ga1 P1'
_cell_volume   33.58998165
_cell_formula_units_Z   1
loop_
 _symmetry_equiv_pos_site_id
 _symmetry_equiv_pos_as_xyz
  1  'x, y, z'
loop_
 _atom_site_type_symbol
 _atom_site_label
 _atom_site_symmetry_multiplicity
 _atom_site_fract_x
 _atom_site_fract_y
 _atom_site_fract_z
 _atom_site_occupancy
  Ga  Ga0  1  0.500000  0.623609  0.123609  1
  P  P1  1  1.000000  0.956573  0.956573  1
