# generated using pymatgen
data_Nd2Cd2O5
_symmetry_space_group_name_H-M   'P 1'
_cell_length_a   4.27541621
_cell_length_b   4.27541621
_cell_length_c   7.41124697
_cell_angle_alpha   90.00000000
_cell_angle_beta   90.00000000
_cell_angle_gamma   90.00000000
_symmetry_Int_Tables_number   1
_chemical_formula_structural   Nd2Cd2O5
_chemical_formula_sum   'Nd2 Cd2 O5'
_cell_volume   135.47154532
_cell_formula_units_Z   1
loop_
 _symmetry_equiv_pos_site_id
 _symmetry_equiv_pos_as_xyz
  1  'x, y, z'
loop_
 _atom_site_type_symbol
 _atom_site_label
 _atom_site_symmetry_multiplicity
 _atom_site_fract_x
 _atom_site_fract_y
 _atom_site_fract_z
 _atom_site_occupancy
  Nd  Nd0  1  0.000000  0.000000  0.000000  1
  Nd  Nd1  1  0.000000  0.000000  0.500000  1
  Cd  Cd2  1  0.500000  0.500000  0.208770  1
  Cd  Cd3  1  0.500000  0.500000  0.791230  1
  O  O4  1  0.500000  0.000000  0.202354  1
  O  O5  1  0.500000  0.000000  0.797646  1
  O  O6  1  0.500000  0.500000  0.500000  1
  O  O7  1  0.000000  0.500000  0.202354  1
  O  O8  1  0.000000  0.500000  0.797646  1
