# generated using pymatgen
data_TlPt2S3
_symmetry_space_group_name_H-M   'P 1'
_cell_length_a   7.21783803
_cell_length_b   7.21783803
_cell_length_c   6.21015793
_cell_angle_alpha   90.00000000
_cell_angle_beta   90.00000000
_cell_angle_gamma   120.00000000
_symmetry_Int_Tables_number   1
_chemical_formula_structural   TlPt2S3
_chemical_formula_sum   'Tl2 Pt4 S6'
_cell_volume   280.18671619
_cell_formula_units_Z   2
loop_
 _symmetry_equiv_pos_site_id
 _symmetry_equiv_pos_as_xyz
  1  'x, y, z'
loop_
 _atom_site_type_symbol
 _atom_site_label
 _atom_site_symmetry_multiplicity
 _atom_site_fract_x
 _atom_site_fract_y
 _atom_site_fract_z
 _atom_site_occupancy
  Tl  Tl0  1  0.666667  0.333333  0.628940  1
  Tl  Tl1  1  0.333333  0.666667  0.371060  1
  Pt  Pt2  1  0.000000  0.000000  0.000000  1
  Pt  Pt3  1  0.000000  0.500000  0.000000  1
  Pt  Pt4  1  0.500000  0.000000  0.000000  1
  Pt  Pt5  1  0.500000  0.500000  0.000000  1
  S  S6  1  0.829824  0.170176  0.186257  1
  S  S7  1  0.829824  0.659648  0.186257  1
  S  S8  1  0.340352  0.170176  0.186257  1
  S  S9  1  0.659648  0.829824  0.813743  1
  S  S10  1  0.170176  0.829824  0.813743  1
  S  S11  1  0.170176  0.340352  0.813743  1
