# generated using pymatgen
data_KErTe2
_symmetry_space_group_name_H-M   'P 1'
_cell_length_a   8.63922433
_cell_length_b   8.63922433
_cell_length_c   8.63922433
_cell_angle_alpha   29.98058101
_cell_angle_beta   29.98058101
_cell_angle_gamma   29.98058101
_symmetry_Int_Tables_number   1
_chemical_formula_structural   KErTe2
_chemical_formula_sum   'K1 Er1 Te2'
_cell_volume   142.61608361
_cell_formula_units_Z   1
loop_
 _symmetry_equiv_pos_site_id
 _symmetry_equiv_pos_as_xyz
  1  'x, y, z'
loop_
 _atom_site_type_symbol
 _atom_site_label
 _atom_site_symmetry_multiplicity
 _atom_site_fract_x
 _atom_site_fract_y
 _atom_site_fract_z
 _atom_site_occupancy
  K  K0  1  0.500000  0.500000  0.500000  1
  Er  Er1  1  0.000000  0.000000  0.000000  1
  Te  Te2  1  0.735553  0.735553  0.735553  1
  Te  Te3  1  0.264447  0.264447  0.264447  1
