# generated using pymatgen
data_AgO2F
_symmetry_space_group_name_H-M   'P 1'
_cell_length_a   6.91959814
_cell_length_b   6.91959814
_cell_length_c   4.80947079
_cell_angle_alpha   79.73636570
_cell_angle_beta   100.26363430
_cell_angle_gamma   147.19694990
_symmetry_Int_Tables_number   1
_chemical_formula_structural   AgO2F
_chemical_formula_sum   'Ag2 O4 F2'
_cell_volume   122.58489269
_cell_formula_units_Z   2
loop_
 _symmetry_equiv_pos_site_id
 _symmetry_equiv_pos_as_xyz
  1  'x, y, z'
loop_
 _atom_site_type_symbol
 _atom_site_label
 _atom_site_symmetry_multiplicity
 _atom_site_fract_x
 _atom_site_fract_y
 _atom_site_fract_z
 _atom_site_occupancy
  Ag  Ag0  1  0.670609  0.329391  0.712419  1
  Ag  Ag1  1  0.329391  0.670609  0.287581  1
  O  O2  1  0.129594  0.194161  0.276532  1
  O  O3  1  0.805839  0.870406  0.276532  1
  O  O4  1  0.194161  0.129594  0.723468  1
  O  O5  1  0.870406  0.805839  0.723468  1
  F  F6  1  0.742962  0.257038  0.256784  1
  F  F7  1  0.257038  0.742962  0.743216  1
