# generated using pymatgen
data_SmSiAg
_symmetry_space_group_name_H-M   'P 1'
_cell_length_a   7.18734795
_cell_length_b   7.18734795
_cell_length_c   4.26889880
_cell_angle_alpha   90.00000000
_cell_angle_beta   90.00000000
_cell_angle_gamma   120.00000000
_symmetry_Int_Tables_number   1
_chemical_formula_structural   SmSiAg
_chemical_formula_sum   'Sm3 Si3 Ag3'
_cell_volume   190.97821549
_cell_formula_units_Z   3
loop_
 _symmetry_equiv_pos_site_id
 _symmetry_equiv_pos_as_xyz
  1  'x, y, z'
loop_
 _atom_site_type_symbol
 _atom_site_label
 _atom_site_symmetry_multiplicity
 _atom_site_fract_x
 _atom_site_fract_y
 _atom_site_fract_z
 _atom_site_occupancy
  Sm  Sm0  1  0.584148  0.000000  0.000000  1
  Sm  Sm1  1  0.415852  0.415852  0.000000  1
  Sm  Sm2  1  0.000000  0.584148  0.000000  1
  Si  Si3  1  0.666667  0.333333  0.500000  1
  Si  Si4  1  0.333333  0.666667  0.500000  1
  Si  Si5  1  0.000000  0.000000  0.000000  1
  Ag  Ag6  1  0.248789  0.000000  0.500000  1
  Ag  Ag7  1  0.000000  0.248789  0.500000  1
  Ag  Ag8  1  0.751211  0.751211  0.500000  1
