# generated using pymatgen
data_CuO2F
_symmetry_space_group_name_H-M   'P 1'
_cell_length_a   6.51330347
_cell_length_b   6.51330347
_cell_length_c   6.51330347
_cell_angle_alpha   152.39799085
_cell_angle_beta   135.37795158
_cell_angle_gamma   53.27727357
_symmetry_Int_Tables_number   1
_chemical_formula_structural   CuO2F
_chemical_formula_sum   'Cu2 O4 F2'
_cell_volume   89.46953728
_cell_formula_units_Z   2
loop_
 _symmetry_equiv_pos_site_id
 _symmetry_equiv_pos_as_xyz
  1  'x, y, z'
loop_
 _atom_site_type_symbol
 _atom_site_label
 _atom_site_symmetry_multiplicity
 _atom_site_fract_x
 _atom_site_fract_y
 _atom_site_fract_z
 _atom_site_occupancy
  Cu  Cu0  1  0.258209  0.851510  0.406698  1
  Cu  Cu1  1  0.555188  0.148490  0.406698  1
  O  O2  1  0.790099  0.055124  0.734975  1
  O  O3  1  0.679852  0.944876  0.734975  1
  O  O4  1  0.180672  0.442559  0.738114  1
  O  O5  1  0.295555  0.557441  0.738114  1
  F  F6  1  0.821386  0.746114  0.075273  1
  F  F7  1  0.329159  0.253886  0.075273  1
