# generated using pymatgen
data_LuCoGe2
_symmetry_space_group_name_H-M   'P 1'
_cell_length_a   8.59039561
_cell_length_b   8.59039561
_cell_length_c   4.11945646
_cell_angle_alpha   90.00000000
_cell_angle_beta   90.00000000
_cell_angle_gamma   152.62412294
_symmetry_Int_Tables_number   1
_chemical_formula_structural   LuCoGe2
_chemical_formula_sum   'Lu2 Co2 Ge4'
_cell_volume   139.78472757
_cell_formula_units_Z   2
loop_
 _symmetry_equiv_pos_site_id
 _symmetry_equiv_pos_as_xyz
  1  'x, y, z'
loop_
 _atom_site_type_symbol
 _atom_site_label
 _atom_site_symmetry_multiplicity
 _atom_site_fract_x
 _atom_site_fract_y
 _atom_site_fract_z
 _atom_site_occupancy
  Lu  Lu0  1  0.109802  0.890198  0.250000  1
  Lu  Lu1  1  0.890198  0.109802  0.750000  1
  Co  Co2  1  0.321641  0.678359  0.250000  1
  Co  Co3  1  0.678359  0.321641  0.750000  1
  Ge  Ge4  1  0.748623  0.251377  0.250000  1
  Ge  Ge5  1  0.251377  0.748623  0.750000  1
  Ge  Ge6  1  0.456023  0.543977  0.250000  1
  Ge  Ge7  1  0.543977  0.456023  0.750000  1
