# generated using pymatgen
data_CuAuO2
_symmetry_space_group_name_H-M   'P 1'
_cell_length_a   3.45518990
_cell_length_b   3.45518990
_cell_length_c   6.18039982
_cell_angle_alpha   82.68475319
_cell_angle_beta   97.31524681
_cell_angle_gamma   131.31759345
_symmetry_Int_Tables_number   1
_chemical_formula_structural   CuAuO2
_chemical_formula_sum   'Cu1 Au1 O2'
_cell_volume   54.87226996
_cell_formula_units_Z   1
loop_
 _symmetry_equiv_pos_site_id
 _symmetry_equiv_pos_as_xyz
  1  'x, y, z'
loop_
 _atom_site_type_symbol
 _atom_site_label
 _atom_site_symmetry_multiplicity
 _atom_site_fract_x
 _atom_site_fract_y
 _atom_site_fract_z
 _atom_site_occupancy
  Cu  Cu0  1  0.500000  0.500000  0.000000  1
  Au  Au1  1  0.000000  1.000000  0.500000  1
  O  O2  1  0.086745  0.913255  0.829777  1
  O  O3  1  0.913255  0.086745  0.170223  1
