# generated using pymatgen
data_Rb3Ba
_symmetry_space_group_name_H-M   'P 1'
_cell_length_a   8.77896605
_cell_length_b   8.77896605
_cell_length_c   8.77896605
_cell_angle_alpha   134.83189785
_cell_angle_beta   134.83189785
_cell_angle_gamma   65.79150476
_symmetry_Int_Tables_number   1
_chemical_formula_structural   Rb3Ba
_chemical_formula_sum   'Rb3 Ba1'
_cell_volume   335.15272803
_cell_formula_units_Z   1
loop_
 _symmetry_equiv_pos_site_id
 _symmetry_equiv_pos_as_xyz
  1  'x, y, z'
loop_
 _atom_site_type_symbol
 _atom_site_label
 _atom_site_symmetry_multiplicity
 _atom_site_fract_x
 _atom_site_fract_y
 _atom_site_fract_z
 _atom_site_occupancy
  Rb  Rb0  1  0.250000  0.750000  0.500000  1
  Rb  Rb1  1  0.750000  0.250000  0.500000  1
  Rb  Rb2  1  0.500000  0.500000  0.000000  1
  Ba  Ba3  1  0.000000  0.000000  0.000000  1
