# generated using pymatgen
data_Hf(TlTe)4
_symmetry_space_group_name_H-M   'P 1'
_cell_length_a   9.87451966
_cell_length_b   9.87451966
_cell_length_c   9.87451966
_cell_angle_alpha   98.36522551
_cell_angle_beta   98.36522551
_cell_angle_gamma   98.36522551
_symmetry_Int_Tables_number   1
_chemical_formula_structural   Hf(TlTe)4
_chemical_formula_sum   'Hf3 Tl12 Te12'
_cell_volume   928.68881063
_cell_formula_units_Z   3
loop_
 _symmetry_equiv_pos_site_id
 _symmetry_equiv_pos_as_xyz
  1  'x, y, z'
loop_
 _atom_site_type_symbol
 _atom_site_label
 _atom_site_symmetry_multiplicity
 _atom_site_fract_x
 _atom_site_fract_y
 _atom_site_fract_z
 _atom_site_occupancy
  Hf  Hf0  1  0.244592  0.244592  0.244592  1
  Hf  Hf1  1  0.755408  0.755408  0.755408  1
  Hf  Hf2  1  0.500000  0.500000  0.500000  1
  Tl  Tl3  1  0.011703  0.882173  0.334989  1
  Tl  Tl4  1  0.882173  0.334989  0.011703  1
  Tl  Tl5  1  0.334989  0.011703  0.882173  1
  Tl  Tl6  1  0.988297  0.117827  0.665011  1
  Tl  Tl7  1  0.117827  0.665011  0.988297  1
  Tl  Tl8  1  0.665011  0.988297  0.117827  1
  Tl  Tl9  1  0.870409  0.533456  0.364702  1
  Tl  Tl10  1  0.533456  0.364702  0.870409  1
  Tl  Tl11  1  0.364702  0.870409  0.533456  1
  Tl  Tl12  1  0.129591  0.466544  0.635298  1
  Tl  Tl13  1  0.466544  0.635298  0.129591  1
  Tl  Tl14  1  0.635298  0.129591  0.466544  1
  Te  Te15  1  0.964406  0.195956  0.294604  1
  Te  Te16  1  0.195956  0.294604  0.964406  1
  Te  Te17  1  0.294604  0.964406  0.195957  1
  Te  Te18  1  0.035594  0.804044  0.705396  1
  Te  Te19  1  0.804044  0.705396  0.035594  1
  Te  Te20  1  0.705396  0.035594  0.804044  1
  Te  Te21  1  0.341915  0.240526  0.547102  1
  Te  Te22  1  0.240526  0.547102  0.341915  1
  Te  Te23  1  0.547102  0.341915  0.240526  1
  Te  Te24  1  0.658085  0.759474  0.452898  1
  Te  Te25  1  0.759474  0.452898  0.658085  1
  Te  Te26  1  0.452898  0.658085  0.759474  1
