# generated using pymatgen
data_RbAsF6
_symmetry_space_group_name_H-M   'P 1'
_cell_length_a   5.15481440
_cell_length_b   5.15481440
_cell_length_c   5.15481440
_cell_angle_alpha   97.21006950
_cell_angle_beta   97.21006950
_cell_angle_gamma   97.21006950
_symmetry_Int_Tables_number   1
_chemical_formula_structural   RbAsF6
_chemical_formula_sum   'Rb1 As1 F6'
_cell_volume   133.42095154
_cell_formula_units_Z   1
loop_
 _symmetry_equiv_pos_site_id
 _symmetry_equiv_pos_as_xyz
  1  'x, y, z'
loop_
 _atom_site_type_symbol
 _atom_site_label
 _atom_site_symmetry_multiplicity
 _atom_site_fract_x
 _atom_site_fract_y
 _atom_site_fract_z
 _atom_site_occupancy
  Rb  Rb0  1  0.500000  0.500000  0.500000  1
  As  As1  1  0.000000  0.000000  0.000000  1
  F  F2  1  0.921573  0.269012  0.212160  1
  F  F3  1  0.212160  0.921573  0.269012  1
  F  F4  1  0.730988  0.787840  0.078427  1
  F  F5  1  0.787840  0.078427  0.730988  1
  F  F6  1  0.078427  0.730988  0.787840  1
  F  F7  1  0.269012  0.212160  0.921573  1
