# generated using pymatgen
data_Rb2BrCl6F
_symmetry_space_group_name_H-M   'P 1'
_cell_length_a   7.24850578
_cell_length_b   7.24850578
_cell_length_c   7.24850578
_cell_angle_alpha   60.00000000
_cell_angle_beta   60.00000000
_cell_angle_gamma   60.00000000
_symmetry_Int_Tables_number   1
_chemical_formula_structural   Rb2BrCl6F
_chemical_formula_sum   'Rb2 Br1 Cl6 F1'
_cell_volume   269.29635223
_cell_formula_units_Z   1
loop_
 _symmetry_equiv_pos_site_id
 _symmetry_equiv_pos_as_xyz
  1  'x, y, z'
loop_
 _atom_site_type_symbol
 _atom_site_label
 _atom_site_symmetry_multiplicity
 _atom_site_fract_x
 _atom_site_fract_y
 _atom_site_fract_z
 _atom_site_occupancy
  Rb  Rb0  1  0.750000  0.750000  0.750000  1
  Rb  Rb1  1  0.250000  0.250000  0.250000  1
  Br  Br2  1  0.500000  0.500000  0.500000  1
  Cl  Cl3  1  0.258680  0.741320  0.741320  1
  Cl  Cl4  1  0.258680  0.258680  0.741320  1
  Cl  Cl5  1  0.741320  0.741320  0.258680  1
  Cl  Cl6  1  0.258680  0.741320  0.258680  1
  Cl  Cl7  1  0.741320  0.258680  0.741320  1
  Cl  Cl8  1  0.741320  0.258680  0.258680  1
  F  F9  1  0.000000  0.000000  0.000000  1
