# generated using pymatgen
data_LiFeHSO5
_symmetry_space_group_name_H-M   'P 1'
_cell_length_a   7.53938822
_cell_length_b   5.56416258
_cell_length_c   9.85531698
_cell_angle_alpha   90.00000000
_cell_angle_beta   110.49696316
_cell_angle_gamma   90.00000000
_symmetry_Int_Tables_number   1
_chemical_formula_structural   LiFeHSO5
_chemical_formula_sum   'Li4 Fe4 H4 S4 O20'
_cell_volume   387.26009395
_cell_formula_units_Z   4
loop_
 _symmetry_equiv_pos_site_id
 _symmetry_equiv_pos_as_xyz
  1  'x, y, z'
loop_
 _atom_site_type_symbol
 _atom_site_label
 _atom_site_symmetry_multiplicity
 _atom_site_fract_x
 _atom_site_fract_y
 _atom_site_fract_z
 _atom_site_occupancy
  Li  Li0  1  0.187966  0.437211  0.914813  1
  Li  Li1  1  0.312034  0.937211  0.085187  1
  Li  Li2  1  0.812034  0.562789  0.085187  1
  Li  Li3  1  0.687966  0.062789  0.914813  1
  Fe  Fe4  1  0.373469  0.763184  0.444774  1
  Fe  Fe5  1  0.126531  0.263184  0.555226  1
  Fe  Fe6  1  0.626531  0.236816  0.555226  1
  Fe  Fe7  1  0.873469  0.736816  0.444774  1
  H  H8  1  0.906793  0.498541  0.667676  1
  H  H9  1  0.593207  0.998541  0.332324  1
  H  H10  1  0.093207  0.501459  0.332324  1
  H  H11  1  0.406793  0.001459  0.667676  1
  S  S12  1  0.007390  0.061027  0.211081  1
  S  S13  1  0.492610  0.561027  0.788919  1
  S  S14  1  0.992610  0.938973  0.788919  1
  S  S15  1  0.507390  0.438973  0.211081  1
  O  O16  1  0.627349  0.926858  0.429722  1
  O  O17  1  0.872651  0.426858  0.570278  1
  O  O18  1  0.372651  0.073142  0.570278  1
  O  O19  1  0.127349  0.573142  0.429722  1
  O  O20  1  0.463650  0.445492  0.349168  1
  O  O21  1  0.036350  0.945492  0.650832  1
  O  O22  1  0.536350  0.554508  0.650832  1
  O  O23  1  0.963650  0.054508  0.349168  1
  O  O24  1  0.697103  0.551533  0.239856  1
  O  O25  1  0.802897  0.051533  0.760144  1
  O  O26  1  0.302897  0.448467  0.760144  1
  O  O27  1  0.197103  0.948467  0.239856  1
  O  O28  1  0.990998  0.686627  0.835605  1
  O  O29  1  0.509002  0.186627  0.164395  1
  O  O30  1  0.009002  0.313373  0.164395  1
  O  O31  1  0.490998  0.813373  0.835605  1
  O  O32  1  0.637577  0.419934  0.903132  1
  O  O33  1  0.862423  0.919934  0.096868  1
  O  O34  1  0.362423  0.580066  0.096868  1
  O  O35  1  0.137577  0.080066  0.903132  1
