# generated using pymatgen
data_AgBiO2
_symmetry_space_group_name_H-M   'P 1'
_cell_length_a   6.64182980
_cell_length_b   6.64182980
_cell_length_c   6.70145385
_cell_angle_alpha   82.07692981
_cell_angle_beta   97.92307019
_cell_angle_gamma   148.51660190
_symmetry_Int_Tables_number   1
_chemical_formula_structural   AgBiO2
_chemical_formula_sum   'Ag2 Bi2 O4'
_cell_volume   152.80026286
_cell_formula_units_Z   2
loop_
 _symmetry_equiv_pos_site_id
 _symmetry_equiv_pos_as_xyz
  1  'x, y, z'
loop_
 _atom_site_type_symbol
 _atom_site_label
 _atom_site_symmetry_multiplicity
 _atom_site_fract_x
 _atom_site_fract_y
 _atom_site_fract_z
 _atom_site_occupancy
  Ag  Ag0  1  0.000000  0.000000  0.000000  1
  Ag  Ag1  1  0.500000  0.500000  0.500000  1
  Bi  Bi2  1  0.753740  0.246260  0.260970  1
  Bi  Bi3  1  0.246260  0.753740  0.739030  1
  O  O4  1  0.336130  0.663870  0.483020  1
  O  O5  1  0.663870  0.336130  0.516980  1
  O  O6  1  0.839270  0.160730  0.883490  1
  O  O7  1  0.160730  0.839270  0.116510  1
