# generated using pymatgen
data_ScAgO2
_symmetry_space_group_name_H-M   'P 1'
_cell_length_a   6.53876881
_cell_length_b   6.53876881
_cell_length_c   6.53876881
_cell_angle_alpha   28.67879011
_cell_angle_beta   28.67879011
_cell_angle_gamma   28.67879011
_symmetry_Int_Tables_number   1
_chemical_formula_structural   ScAgO2
_chemical_formula_sum   'Sc1 Ag1 O2'
_cell_volume   56.92211602
_cell_formula_units_Z   1
loop_
 _symmetry_equiv_pos_site_id
 _symmetry_equiv_pos_as_xyz
  1  'x, y, z'
loop_
 _atom_site_type_symbol
 _atom_site_label
 _atom_site_symmetry_multiplicity
 _atom_site_fract_x
 _atom_site_fract_y
 _atom_site_fract_z
 _atom_site_occupancy
  Sc  Sc0  1  0.500000  0.500000  0.500000  1
  Ag  Ag1  1  0.000000  0.000000  0.000000  1
  O  O2  1  0.888118  0.888118  0.888118  1
  O  O3  1  0.111882  0.111882  0.111882  1
