# generated using pymatgen
data_Ag2GeO3
_symmetry_space_group_name_H-M   'P 1'
_cell_length_a   4.75468184
_cell_length_b   7.14059722
_cell_length_c   10.55232949
_cell_angle_alpha   90.00000000
_cell_angle_beta   90.00000000
_cell_angle_gamma   90.00000000
_symmetry_Int_Tables_number   1
_chemical_formula_structural   Ag2GeO3
_chemical_formula_sum   'Ag8 Ge4 O12'
_cell_volume   358.26496579
_cell_formula_units_Z   4
loop_
 _symmetry_equiv_pos_site_id
 _symmetry_equiv_pos_as_xyz
  1  'x, y, z'
loop_
 _atom_site_type_symbol
 _atom_site_label
 _atom_site_symmetry_multiplicity
 _atom_site_fract_x
 _atom_site_fract_y
 _atom_site_fract_z
 _atom_site_occupancy
  Ag  Ag0  1  0.596352  0.622091  0.624046  1
  Ag  Ag1  1  0.903648  0.377909  0.124046  1
  Ag  Ag2  1  0.096352  0.877909  0.375954  1
  Ag  Ag3  1  0.403648  0.122091  0.875954  1
  Ag  Ag4  1  0.980305  0.393102  0.779214  1
  Ag  Ag5  1  0.519695  0.606898  0.279214  1
  Ag  Ag6  1  0.480305  0.106898  0.220786  1
  Ag  Ag7  1  0.019695  0.893102  0.720786  1
  Ge  Ge8  1  0.532591  0.131343  0.564049  1
  Ge  Ge9  1  0.967409  0.868657  0.064049  1
  Ge  Ge10  1  0.032591  0.368657  0.435951  1
  Ge  Ge11  1  0.467409  0.631343  0.935951  1
  O  O12  1  0.704628  0.140728  0.713131  1
  O  O13  1  0.795372  0.859272  0.213131  1
  O  O14  1  0.204628  0.359272  0.286869  1
  O  O15  1  0.295372  0.640728  0.786869  1
  O  O16  1  0.283368  0.323578  0.561289  1
  O  O17  1  0.216632  0.676422  0.061289  1
  O  O18  1  0.783368  0.176422  0.438711  1
  O  O19  1  0.716632  0.823578  0.938711  1
  O  O20  1  0.627068  0.413913  0.960862  1
  O  O21  1  0.872932  0.586087  0.460862  1
  O  O22  1  0.127068  0.086087  0.039138  1
  O  O23  1  0.372932  0.913913  0.539138  1
