# generated using pymatgen
data_Tm2Co12P7
_symmetry_space_group_name_H-M   'P 1'
_cell_length_a   8.99051176
_cell_length_b   8.99051176
_cell_length_c   3.56460242
_cell_angle_alpha   90.00000000
_cell_angle_beta   90.00000000
_cell_angle_gamma   120.00000000
_symmetry_Int_Tables_number   1
_chemical_formula_structural   Tm2Co12P7
_chemical_formula_sum   'Tm2 Co12 P7'
_cell_volume   249.52298467
_cell_formula_units_Z   1
loop_
 _symmetry_equiv_pos_site_id
 _symmetry_equiv_pos_as_xyz
  1  'x, y, z'
loop_
 _atom_site_type_symbol
 _atom_site_label
 _atom_site_symmetry_multiplicity
 _atom_site_fract_x
 _atom_site_fract_y
 _atom_site_fract_z
 _atom_site_occupancy
  Tm  Tm0  1  0.666667  0.333333  0.000000  1
  Tm  Tm1  1  0.000000  0.000000  0.500000  1
  Co  Co2  1  0.768935  0.727405  0.000000  1
  Co  Co3  1  0.272595  0.041529  0.000000  1
  Co  Co4  1  0.958471  0.231065  0.000000  1
  Co  Co5  1  0.716647  0.104024  0.500000  1
  Co  Co6  1  0.895976  0.612622  0.500000  1
  Co  Co7  1  0.387378  0.283353  0.500000  1
  Co  Co8  1  0.487682  0.940165  0.000000  1
  Co  Co9  1  0.059835  0.547517  0.000000  1
  Co  Co10  1  0.452483  0.512318  0.000000  1
  Co  Co11  1  0.570285  0.771006  0.500000  1
  Co  Co12  1  0.228994  0.799279  0.500000  1
  Co  Co13  1  0.200721  0.429715  0.500000  1
  P  P14  1  0.333333  0.666667  0.000000  1
  P  P15  1  0.446163  0.070187  0.500000  1
  P  P16  1  0.929813  0.375976  0.500000  1
  P  P17  1  0.624024  0.553837  0.500000  1
  P  P18  1  0.740769  0.959964  0.000000  1
  P  P19  1  0.040036  0.780804  0.000000  1
  P  P20  1  0.219196  0.259231  0.000000  1
