# generated using pymatgen
data_Rb3Re
_symmetry_space_group_name_H-M   'P 1'
_cell_length_a   7.02185424
_cell_length_b   7.02185424
_cell_length_c   7.02185424
_cell_angle_alpha   129.02536208
_cell_angle_beta   129.02536208
_cell_angle_gamma   74.96976853
_symmetry_Int_Tables_number   1
_chemical_formula_structural   Rb3Re
_chemical_formula_sum   'Rb3 Re1'
_cell_volume   203.48645770
_cell_formula_units_Z   1
loop_
 _symmetry_equiv_pos_site_id
 _symmetry_equiv_pos_as_xyz
  1  'x, y, z'
loop_
 _atom_site_type_symbol
 _atom_site_label
 _atom_site_symmetry_multiplicity
 _atom_site_fract_x
 _atom_site_fract_y
 _atom_site_fract_z
 _atom_site_occupancy
  Rb  Rb0  1  0.250000  0.750000  0.500000  1
  Rb  Rb1  1  0.750000  0.250000  0.500000  1
  Rb  Rb2  1  0.500000  0.500000  0.000000  1
  Re  Re3  1  0.000000  0.000000  0.000000  1
