# generated using pymatgen
data_Ho6Bi2Rh
_symmetry_space_group_name_H-M   'P 1'
_cell_length_a   8.39446816
_cell_length_b   8.39446816
_cell_length_c   4.11954114
_cell_angle_alpha   90.00000000
_cell_angle_beta   90.00000000
_cell_angle_gamma   120.00000000
_symmetry_Int_Tables_number   1
_chemical_formula_structural   Ho6Bi2Rh
_chemical_formula_sum   'Ho6 Bi2 Rh1'
_cell_volume   251.40033268
_cell_formula_units_Z   1
loop_
 _symmetry_equiv_pos_site_id
 _symmetry_equiv_pos_as_xyz
  1  'x, y, z'
loop_
 _atom_site_type_symbol
 _atom_site_label
 _atom_site_symmetry_multiplicity
 _atom_site_fract_x
 _atom_site_fract_y
 _atom_site_fract_z
 _atom_site_occupancy
  Ho  Ho0  1  0.605051  0.000000  0.500000  1
  Ho  Ho1  1  0.000000  0.605051  0.500000  1
  Ho  Ho2  1  0.394949  0.394949  0.500000  1
  Ho  Ho3  1  0.236433  0.000000  0.000000  1
  Ho  Ho4  1  0.000000  0.236433  0.000000  1
  Ho  Ho5  1  0.763567  0.763567  0.000000  1
  Bi  Bi6  1  0.333333  0.666667  0.000000  1
  Bi  Bi7  1  0.666667  0.333333  0.000000  1
  Rh  Rh8  1  0.000000  0.000000  0.500000  1
