# generated using pymatgen
data_SrTcN3
_symmetry_space_group_name_H-M   'P 1'
_cell_length_a   7.60031989
_cell_length_b   7.60031989
_cell_length_c   6.18054218
_cell_angle_alpha   78.51115063
_cell_angle_beta   101.48884937
_cell_angle_gamma   92.21708291
_symmetry_Int_Tables_number   1
_chemical_formula_structural   SrTcN3
_chemical_formula_sum   'Sr4 Tc4 N12'
_cell_volume   342.85451836
_cell_formula_units_Z   4
loop_
 _symmetry_equiv_pos_site_id
 _symmetry_equiv_pos_as_xyz
  1  'x, y, z'
loop_
 _atom_site_type_symbol
 _atom_site_label
 _atom_site_symmetry_multiplicity
 _atom_site_fract_x
 _atom_site_fract_y
 _atom_site_fract_z
 _atom_site_occupancy
  Sr  Sr0  1  0.326390  0.326390  0.250000  1
  Sr  Sr1  1  0.092280  0.092280  0.750000  1
  Sr  Sr2  1  0.673610  0.673610  0.750000  1
  Sr  Sr3  1  0.907720  0.907720  0.250000  1
  Tc  Tc4  1  0.798190  0.375570  0.254060  1
  Tc  Tc5  1  0.375570  0.798190  0.245940  1
  Tc  Tc6  1  0.624430  0.201810  0.754060  1
  Tc  Tc7  1  0.201810  0.624430  0.745940  1
  N  N8  1  0.366870  0.675830  0.000000  1
  N  N9  1  0.987950  0.233110  0.333720  1
  N  N10  1  0.012050  0.766890  0.666280  1
  N  N11  1  0.594330  0.865650  0.333680  1
  N  N12  1  0.233110  0.987950  0.166280  1
  N  N13  1  0.324170  0.633130  0.500000  1
  N  N14  1  0.766890  0.012050  0.833720  1
  N  N15  1  0.633130  0.324170  0.000000  1
  N  N16  1  0.675830  0.366870  0.500000  1
  N  N17  1  0.865650  0.594330  0.166320  1
  N  N18  1  0.405670  0.134350  0.666320  1
  N  N19  1  0.134350  0.405670  0.833680  1
