# generated using pymatgen
data_AuClO2
_symmetry_space_group_name_H-M   'P 1'
_cell_length_a   4.45938965
_cell_length_b   3.43203000
_cell_length_c   11.98520000
_cell_angle_alpha   90.00000000
_cell_angle_beta   100.18894473
_cell_angle_gamma   90.00000000
_symmetry_Int_Tables_number   1
_chemical_formula_structural   AuClO2
_chemical_formula_sum   'Au2 Cl2 O4'
_cell_volume   180.53785353
_cell_formula_units_Z   2
loop_
 _symmetry_equiv_pos_site_id
 _symmetry_equiv_pos_as_xyz
  1  'x, y, z'
loop_
 _atom_site_type_symbol
 _atom_site_label
 _atom_site_symmetry_multiplicity
 _atom_site_fract_x
 _atom_site_fract_y
 _atom_site_fract_z
 _atom_site_occupancy
  Au  Au0  1  0.133720  0.750000  0.072800  1
  Au  Au1  1  0.866280  0.250000  0.927200  1
  Cl  Cl2  1  0.369520  0.250000  0.201580  1
  Cl  Cl3  1  0.630480  0.750000  0.798420  1
  O  O4  1  0.856240  0.750000  0.434170  1
  O  O5  1  0.863310  0.250000  0.549770  1
  O  O6  1  0.143760  0.250000  0.565830  1
  O  O7  1  0.136690  0.750000  0.450230  1
