# generated using pymatgen
data_Nd3I
_symmetry_space_group_name_H-M   'P 1'
_cell_length_a   7.08348046
_cell_length_b   7.08348046
_cell_length_c   5.80516196
_cell_angle_alpha   90.00000000
_cell_angle_beta   90.00000000
_cell_angle_gamma   120.00000000
_symmetry_Int_Tables_number   1
_chemical_formula_structural   Nd3I
_chemical_formula_sum   'Nd6 I2'
_cell_volume   252.25418052
_cell_formula_units_Z   2
loop_
 _symmetry_equiv_pos_site_id
 _symmetry_equiv_pos_as_xyz
  1  'x, y, z'
loop_
 _atom_site_type_symbol
 _atom_site_label
 _atom_site_symmetry_multiplicity
 _atom_site_fract_x
 _atom_site_fract_y
 _atom_site_fract_z
 _atom_site_occupancy
  Nd  Nd0  1  0.833485  0.166515  0.750000  1
  Nd  Nd1  1  0.333031  0.166515  0.750000  1
  Nd  Nd2  1  0.833485  0.666969  0.750000  1
  Nd  Nd3  1  0.166515  0.833485  0.250000  1
  Nd  Nd4  1  0.666969  0.833485  0.250000  1
  Nd  Nd5  1  0.166515  0.333031  0.250000  1
  I  I6  1  0.666667  0.333333  0.250000  1
  I  I7  1  0.333333  0.666667  0.750000  1
