# generated using pymatgen
data_Sc3P
_symmetry_space_group_name_H-M   'P 1'
_cell_length_a   5.53948318
_cell_length_b   5.53948318
_cell_length_c   5.53948318
_cell_angle_alpha   136.90948695
_cell_angle_beta   136.90948695
_cell_angle_gamma   62.57734440
_symmetry_Int_Tables_number   1
_chemical_formula_structural   Sc3P
_chemical_formula_sum   'Sc3 P1'
_cell_volume   78.36129962
_cell_formula_units_Z   1
loop_
 _symmetry_equiv_pos_site_id
 _symmetry_equiv_pos_as_xyz
  1  'x, y, z'
loop_
 _atom_site_type_symbol
 _atom_site_label
 _atom_site_symmetry_multiplicity
 _atom_site_fract_x
 _atom_site_fract_y
 _atom_site_fract_z
 _atom_site_occupancy
  Sc  Sc0  1  0.250000  0.750000  0.500000  1
  Sc  Sc1  1  0.750000  0.250000  0.500000  1
  Sc  Sc2  1  0.500000  0.500000  0.000000  1
  P  P3  1  0.000000  0.000000  0.000000  1
