# generated using pymatgen
data_Ge3Ir2Se3
_symmetry_space_group_name_H-M   'P 1'
_cell_length_a   8.68668683
_cell_length_b   8.68668683
_cell_length_c   8.68668683
_cell_angle_alpha   89.83148101
_cell_angle_beta   89.83148101
_cell_angle_gamma   89.83148101
_symmetry_Int_Tables_number   1
_chemical_formula_structural   Ge3Ir2Se3
_chemical_formula_sum   'Ge12 Ir8 Se12'
_cell_volume   655.47611258
_cell_formula_units_Z   4
loop_
 _symmetry_equiv_pos_site_id
 _symmetry_equiv_pos_as_xyz
  1  'x, y, z'
loop_
 _atom_site_type_symbol
 _atom_site_label
 _atom_site_symmetry_multiplicity
 _atom_site_fract_x
 _atom_site_fract_y
 _atom_site_fract_z
 _atom_site_occupancy
  Ge  Ge0  1  0.651130  0.502317  0.168417  1
  Ge  Ge1  1  0.168417  0.651130  0.502317  1
  Ge  Ge2  1  0.502317  0.168417  0.651130  1
  Ge  Ge3  1  0.348870  0.497683  0.831583  1
  Ge  Ge4  1  0.831583  0.348870  0.497683  1
  Ge  Ge5  1  0.497683  0.831583  0.348870  1
  Ge  Ge6  1  0.849847  0.002283  0.668758  1
  Ge  Ge7  1  0.668758  0.849847  0.002283  1
  Ge  Ge8  1  0.002283  0.668758  0.849847  1
  Ge  Ge9  1  0.150153  0.997717  0.331242  1
  Ge  Ge10  1  0.331242  0.150153  0.997717  1
  Ge  Ge11  1  0.997717  0.331242  0.150153  1
  Ir  Ir12  1  0.752872  0.752872  0.752872  1
  Ir  Ir13  1  0.247128  0.247128  0.247128  1
  Ir  Ir14  1  0.247779  0.748959  0.253844  1
  Ir  Ir15  1  0.253844  0.247779  0.748959  1
  Ir  Ir16  1  0.748959  0.253844  0.247779  1
  Ir  Ir17  1  0.752221  0.251041  0.746156  1
  Ir  Ir18  1  0.746156  0.752221  0.251041  1
  Ir  Ir19  1  0.251041  0.746156  0.752221  1
  Se  Se20  1  0.357272  0.496862  0.147271  1
  Se  Se21  1  0.147271  0.357272  0.496862  1
  Se  Se22  1  0.496862  0.147271  0.357272  1
  Se  Se23  1  0.642728  0.503138  0.852729  1
  Se  Se24  1  0.852729  0.642728  0.503138  1
  Se  Se25  1  0.503138  0.852729  0.642728  1
  Se  Se26  1  0.143658  0.999534  0.647371  1
  Se  Se27  1  0.647371  0.143658  0.999534  1
  Se  Se28  1  0.999534  0.647371  0.143658  1
  Se  Se29  1  0.856342  0.000466  0.352629  1
  Se  Se30  1  0.352629  0.856342  0.000466  1
  Se  Se31  1  0.000466  0.352629  0.856342  1
