# generated using pymatgen
data_SnClF
_symmetry_space_group_name_H-M   'P 1'
_cell_length_a   4.05497768
_cell_length_b   4.05497768
_cell_length_c   7.36387010
_cell_angle_alpha   90.00000000
_cell_angle_beta   90.00000000
_cell_angle_gamma   90.00000000
_symmetry_Int_Tables_number   1
_chemical_formula_structural   SnClF
_chemical_formula_sum   'Sn2 Cl2 F2'
_cell_volume   121.08296718
_cell_formula_units_Z   2
loop_
 _symmetry_equiv_pos_site_id
 _symmetry_equiv_pos_as_xyz
  1  'x, y, z'
loop_
 _atom_site_type_symbol
 _atom_site_label
 _atom_site_symmetry_multiplicity
 _atom_site_fract_x
 _atom_site_fract_y
 _atom_site_fract_z
 _atom_site_occupancy
  Sn  Sn0  1  0.000000  0.500000  0.796390  1
  Sn  Sn1  1  0.500000  0.000000  0.203610  1
  Cl  Cl2  1  0.500000  0.000000  0.650633  1
  Cl  Cl3  1  0.000000  0.500000  0.349367  1
  F  F4  1  0.500000  0.500000  0.000000  1
  F  F5  1  0.000000  0.000000  0.000000  1
