# generated using pymatgen
data_DyCuTe2
_symmetry_space_group_name_H-M   'P 1'
_cell_length_a   6.90685837
_cell_length_b   4.33953358
_cell_length_c   7.48200481
_cell_angle_alpha   90.00000000
_cell_angle_beta   90.60583324
_cell_angle_gamma   90.00000000
_symmetry_Int_Tables_number   1
_chemical_formula_structural   DyCuTe2
_chemical_formula_sum   'Dy2 Cu2 Te4'
_cell_volume   224.24218086
_cell_formula_units_Z   2
loop_
 _symmetry_equiv_pos_site_id
 _symmetry_equiv_pos_as_xyz
  1  'x, y, z'
loop_
 _atom_site_type_symbol
 _atom_site_label
 _atom_site_symmetry_multiplicity
 _atom_site_fract_x
 _atom_site_fract_y
 _atom_site_fract_z
 _atom_site_occupancy
  Dy  Dy0  1  0.000000  0.000000  0.000000  1
  Dy  Dy1  1  0.000000  0.500000  0.500000  1
  Cu  Cu2  1  0.350990  0.500000  0.837595  1
  Cu  Cu3  1  0.649010  0.500000  0.162405  1
  Te  Te4  1  0.739035  0.500000  0.825192  1
  Te  Te5  1  0.734082  0.000000  0.338544  1
  Te  Te6  1  0.265918  0.000000  0.661456  1
  Te  Te7  1  0.260965  0.500000  0.174808  1
