# generated using pymatgen
data_Lu2Ni12P7
_symmetry_space_group_name_H-M   'P 1'
_cell_length_a   9.00757033
_cell_length_b   9.00757033
_cell_length_c   3.64714841
_cell_angle_alpha   90.00000000
_cell_angle_beta   90.00000000
_cell_angle_gamma   120.00000000
_symmetry_Int_Tables_number   1
_chemical_formula_structural   Lu2Ni12P7
_chemical_formula_sum   'Lu2 Ni12 P7'
_cell_volume   256.27095738
_cell_formula_units_Z   1
loop_
 _symmetry_equiv_pos_site_id
 _symmetry_equiv_pos_as_xyz
  1  'x, y, z'
loop_
 _atom_site_type_symbol
 _atom_site_label
 _atom_site_symmetry_multiplicity
 _atom_site_fract_x
 _atom_site_fract_y
 _atom_site_fract_z
 _atom_site_occupancy
  Lu  Lu0  1  0.333333  0.666667  0.000000  1
  Lu  Lu1  1  0.666667  0.333333  0.500000  1
  Ni  Ni2  1  0.153084  0.276010  0.000000  1
  Ni  Ni3  1  0.723990  0.877073  0.000000  1
  Ni  Ni4  1  0.122927  0.846916  0.000000  1
  Ni  Ni5  1  0.381738  0.431776  0.500000  1
  Ni  Ni6  1  0.568224  0.949962  0.500000  1
  Ni  Ni7  1  0.050038  0.618262  0.500000  1
  Ni  Ni8  1  0.436634  0.061084  0.000000  1
  Ni  Ni9  1  0.938916  0.375550  0.000000  1
  Ni  Ni10  1  0.624450  0.563366  0.000000  1
  Ni  Ni11  1  0.216712  0.093735  0.500000  1
  Ni  Ni12  1  0.906265  0.122977  0.500000  1
  Ni  Ni13  1  0.877023  0.783288  0.500000  1
  P  P14  1  0.113673  0.408232  0.500000  1
  P  P15  1  0.591768  0.705441  0.500000  1
  P  P16  1  0.294559  0.886327  0.500000  1
  P  P17  1  0.407978  0.291610  0.000000  1
  P  P18  1  0.708390  0.116368  0.000000  1
  P  P19  1  0.883632  0.592022  0.000000  1
  P  P20  1  0.000000  0.000000  0.000000  1
