# generated using pymatgen
data_AgClO2
_symmetry_space_group_name_H-M   'P 1'
_cell_length_a   4.27588001
_cell_length_b   4.40148000
_cell_length_c   6.67247967
_cell_angle_alpha   98.39262174
_cell_angle_beta   90.46129880
_cell_angle_gamma   118.86046507
_symmetry_Int_Tables_number   1
_chemical_formula_structural   AgClO2
_chemical_formula_sum   'Ag1 Cl1 O2'
_cell_volume   108.35514625
_cell_formula_units_Z   1
loop_
 _symmetry_equiv_pos_site_id
 _symmetry_equiv_pos_as_xyz
  1  'x, y, z'
loop_
 _atom_site_type_symbol
 _atom_site_label
 _atom_site_symmetry_multiplicity
 _atom_site_fract_x
 _atom_site_fract_y
 _atom_site_fract_z
 _atom_site_occupancy
  Ag  Ag0  1  0.859940  0.460940  0.053510  1
  Cl  Cl1  1  0.532810  0.809750  0.047220  1
  O  O2  1  0.162860  0.094050  0.572980  1
  O  O3  1  0.299400  0.350580  0.485140  1
