# generated using pymatgen
data_Tl2PAuS4
_symmetry_space_group_name_H-M   'P 1'
_cell_length_a   6.62565432
_cell_length_b   6.84239362
_cell_length_c   9.55245397
_cell_angle_alpha   90.00000000
_cell_angle_beta   92.27070462
_cell_angle_gamma   90.00000000
_symmetry_Int_Tables_number   1
_chemical_formula_structural   Tl2PAuS4
_chemical_formula_sum   'Tl4 P2 Au2 S8'
_cell_volume   432.72365053
_cell_formula_units_Z   2
loop_
 _symmetry_equiv_pos_site_id
 _symmetry_equiv_pos_as_xyz
  1  'x, y, z'
loop_
 _atom_site_type_symbol
 _atom_site_label
 _atom_site_symmetry_multiplicity
 _atom_site_fract_x
 _atom_site_fract_y
 _atom_site_fract_z
 _atom_site_occupancy
  Tl  Tl0  1  0.789605  0.250000  0.547111  1
  Tl  Tl1  1  0.210395  0.750000  0.452889  1
  Tl  Tl2  1  0.549720  0.750000  0.849894  1
  Tl  Tl3  1  0.450280  0.250000  0.150106  1
  P  P4  1  0.720140  0.750000  0.268022  1
  P  P5  1  0.279860  0.250000  0.731978  1
  Au  Au6  1  0.000000  0.500000  0.000000  1
  Au  Au7  1  0.000000  0.000000  0.000000  1
  S  S8  1  0.301422  0.250000  0.521634  1
  S  S9  1  0.698578  0.750000  0.478366  1
  S  S10  1  0.552514  0.250000  0.838872  1
  S  S11  1  0.447486  0.750000  0.161128  1
  S  S12  1  0.114428  0.996120  0.772910  1
  S  S13  1  0.885572  0.496120  0.227090  1
  S  S14  1  0.114428  0.503880  0.772910  1
  S  S15  1  0.885572  0.003880  0.227090  1
