# generated using pymatgen
data_Lu2Ni12As7
_symmetry_space_group_name_H-M   'P 1'
_cell_length_a   9.36396138
_cell_length_b   9.36396138
_cell_length_c   3.77733388
_cell_angle_alpha   90.00000000
_cell_angle_beta   90.00000000
_cell_angle_gamma   120.00000000
_symmetry_Int_Tables_number   1
_chemical_formula_structural   Lu2Ni12As7
_chemical_formula_sum   'Lu2 Ni12 As7'
_cell_volume   286.83704100
_cell_formula_units_Z   1
loop_
 _symmetry_equiv_pos_site_id
 _symmetry_equiv_pos_as_xyz
  1  'x, y, z'
loop_
 _atom_site_type_symbol
 _atom_site_label
 _atom_site_symmetry_multiplicity
 _atom_site_fract_x
 _atom_site_fract_y
 _atom_site_fract_z
 _atom_site_occupancy
  Lu  Lu0  1  0.666667  0.333333  0.000000  1
  Lu  Lu1  1  0.000000  0.000000  0.500000  1
  Ni  Ni2  1  0.486519  0.946826  0.000000  1
  Ni  Ni3  1  0.053174  0.539693  0.000000  1
  Ni  Ni4  1  0.460307  0.513481  0.000000  1
  Ni  Ni5  1  0.712307  0.095003  0.500000  1
  Ni  Ni6  1  0.904997  0.617305  0.500000  1
  Ni  Ni7  1  0.382695  0.287693  0.500000  1
  Ni  Ni8  1  0.773069  0.724781  0.000000  1
  Ni  Ni9  1  0.275219  0.048287  0.000000  1
  Ni  Ni10  1  0.951713  0.226931  0.000000  1
  Ni  Ni11  1  0.547098  0.762527  0.500000  1
  Ni  Ni12  1  0.237473  0.784571  0.500000  1
  Ni  Ni13  1  0.215429  0.452902  0.500000  1
  As  As14  1  0.333333  0.666667  0.000000  1
  As  As15  1  0.446996  0.076975  0.500000  1
  As  As16  1  0.923025  0.370021  0.500000  1
  As  As17  1  0.629979  0.553004  0.500000  1
  As  As18  1  0.739321  0.952443  0.000000  1
  As  As19  1  0.047557  0.786878  0.000000  1
  As  As20  1  0.213122  0.260679  0.000000  1
