# generated using pymatgen
data_Ba3MnN3
_symmetry_space_group_name_H-M   'P 1'
_cell_length_a   8.28678614
_cell_length_b   8.28678614
_cell_length_c   5.53418002
_cell_angle_alpha   90.00000000
_cell_angle_beta   90.00000000
_cell_angle_gamma   120.00000000
_symmetry_Int_Tables_number   1
_chemical_formula_structural   Ba3MnN3
_chemical_formula_sum   'Ba6 Mn2 N6'
_cell_volume   329.12144092
_cell_formula_units_Z   2
loop_
 _symmetry_equiv_pos_site_id
 _symmetry_equiv_pos_as_xyz
  1  'x, y, z'
loop_
 _atom_site_type_symbol
 _atom_site_label
 _atom_site_symmetry_multiplicity
 _atom_site_fract_x
 _atom_site_fract_y
 _atom_site_fract_z
 _atom_site_occupancy
  Ba  Ba0  1  0.636705  0.718339  0.750000  1
  Ba  Ba1  1  0.918366  0.636705  0.250000  1
  Ba  Ba2  1  0.718339  0.081634  0.250000  1
  Ba  Ba3  1  0.281661  0.918366  0.750000  1
  Ba  Ba4  1  0.081634  0.363295  0.750000  1
  Ba  Ba5  1  0.363295  0.281661  0.250000  1
  Mn  Mn6  1  0.333333  0.666667  0.250000  1
  Mn  Mn7  1  0.666667  0.333333  0.750000  1
  N  N8  1  0.866241  0.549266  0.750000  1
  N  N9  1  0.316975  0.866241  0.250000  1
  N  N10  1  0.549266  0.683025  0.250000  1
  N  N11  1  0.450734  0.316975  0.750000  1
  N  N12  1  0.683025  0.133759  0.750000  1
  N  N13  1  0.133759  0.450734  0.250000  1
