# generated using pymatgen
data_Li6PS5Br
_symmetry_space_group_name_H-M   'P 1'
_cell_length_a   7.28689031
_cell_length_b   7.28689031
_cell_length_c   7.28689031
_cell_angle_alpha   60.00000000
_cell_angle_beta   60.00000000
_cell_angle_gamma   60.00000000
_symmetry_Int_Tables_number   1
_chemical_formula_structural   Li6PS5Br
_chemical_formula_sum   'Li6 P1 S5 Br1'
_cell_volume   273.59723120
_cell_formula_units_Z   1
loop_
 _symmetry_equiv_pos_site_id
 _symmetry_equiv_pos_as_xyz
  1  'x, y, z'
loop_
 _atom_site_type_symbol
 _atom_site_label
 _atom_site_symmetry_multiplicity
 _atom_site_fract_x
 _atom_site_fract_y
 _atom_site_fract_z
 _atom_site_occupancy
  Li  Li0  1  0.523239  0.523239  0.976761  1
  Li  Li1  1  0.976761  0.976761  0.523239  1
  Li  Li2  1  0.523239  0.976761  0.976761  1
  Li  Li3  1  0.976761  0.523239  0.523239  1
  Li  Li4  1  0.976761  0.523239  0.976761  1
  Li  Li5  1  0.523239  0.976761  0.523239  1
  P  P6  1  0.500000  0.500000  0.500000  1
  S  S7  1  0.384847  0.384847  0.384847  1
  S  S8  1  0.845459  0.384847  0.384847  1
  S  S9  1  0.384847  0.384847  0.845459  1
  S  S10  1  0.384847  0.845459  0.384847  1
  S  S11  1  0.750000  0.750000  0.750000  1
  Br  Br12  1  0.000000  0.000000  0.000000  1
