# generated using pymatgen
data_BaCu(SeO3)2
_symmetry_space_group_name_H-M   'P 1'
_cell_length_a   4.94140962
_cell_length_b   4.94140962
_cell_length_c   16.01537095
_cell_angle_alpha   88.91828524
_cell_angle_beta   91.08171476
_cell_angle_gamma   115.75081491
_symmetry_Int_Tables_number   1
_chemical_formula_structural   BaCu(SeO3)2
_chemical_formula_sum   'Ba2 Cu2 Se4 O12'
_cell_volume   352.13332054
_cell_formula_units_Z   2
loop_
 _symmetry_equiv_pos_site_id
 _symmetry_equiv_pos_as_xyz
  1  'x, y, z'
loop_
 _atom_site_type_symbol
 _atom_site_label
 _atom_site_symmetry_multiplicity
 _atom_site_fract_x
 _atom_site_fract_y
 _atom_site_fract_z
 _atom_site_occupancy
  Ba  Ba0  1  0.035899  0.035899  0.750000  1
  Ba  Ba1  1  0.964101  0.964101  0.250000  1
  Cu  Cu2  1  1.000000  1.000000  0.500000  1
  Cu  Cu3  1  0.000000  0.000000  0.000000  1
  Se  Se4  1  0.634725  0.363483  0.590920  1
  Se  Se5  1  0.636517  0.365275  0.090920  1
  Se  Se6  1  0.363483  0.634725  0.909080  1
  Se  Se7  1  0.365275  0.636517  0.409080  1
  O  O8  1  0.825259  0.755117  0.598331  1
  O  O9  1  0.755117  0.825259  0.901669  1
  O  O10  1  0.174741  0.244883  0.401669  1
  O  O11  1  0.244883  0.174741  0.098331  1
  O  O12  1  0.261637  0.313879  0.578377  1
  O  O13  1  0.313879  0.261637  0.921623  1
  O  O14  1  0.738363  0.686121  0.421623  1
  O  O15  1  0.686121  0.738363  0.078377  1
  O  O16  1  0.727312  0.361538  0.193953  1
  O  O17  1  0.361538  0.727312  0.306047  1
  O  O18  1  0.272688  0.638462  0.806047  1
  O  O19  1  0.638462  0.272688  0.693953  1
