# generated using pymatgen
data_Cs2CaSnCl6
_symmetry_space_group_name_H-M   'P 1'
_cell_length_a   7.86840403
_cell_length_b   7.86840403
_cell_length_c   7.86840403
_cell_angle_alpha   60.00000000
_cell_angle_beta   60.00000000
_cell_angle_gamma   60.00000000
_symmetry_Int_Tables_number   1
_chemical_formula_structural   Cs2CaSnCl6
_chemical_formula_sum   'Cs2 Ca1 Sn1 Cl6'
_cell_volume   344.46488752
_cell_formula_units_Z   1
loop_
 _symmetry_equiv_pos_site_id
 _symmetry_equiv_pos_as_xyz
  1  'x, y, z'
loop_
 _atom_site_type_symbol
 _atom_site_label
 _atom_site_symmetry_multiplicity
 _atom_site_fract_x
 _atom_site_fract_y
 _atom_site_fract_z
 _atom_site_occupancy
  Cs  Cs0  1  0.750000  0.750000  0.750000  1
  Cs  Cs1  1  0.250000  0.250000  0.250000  1
  Ca  Ca2  1  0.500000  0.500000  0.500000  1
  Sn  Sn3  1  0.000000  0.000000  0.000000  1
  Cl  Cl4  1  0.254692  0.745308  0.745308  1
  Cl  Cl5  1  0.254692  0.254692  0.745308  1
  Cl  Cl6  1  0.745308  0.745308  0.254692  1
  Cl  Cl7  1  0.254692  0.745308  0.254692  1
  Cl  Cl8  1  0.745308  0.254692  0.745308  1
  Cl  Cl9  1  0.745308  0.254692  0.254692  1
