# generated using pymatgen
data_Rh2S3
_symmetry_space_group_name_H-M   'P 1'
_cell_length_a   6.34527640
_cell_length_b   6.34527640
_cell_length_c   6.34527640
_cell_angle_alpha   56.69421407
_cell_angle_beta   56.69421407
_cell_angle_gamma   56.69421407
_symmetry_Int_Tables_number   1
_chemical_formula_structural   Rh2S3
_chemical_formula_sum   'Rh4 S6'
_cell_volume   166.85908284
_cell_formula_units_Z   2
loop_
 _symmetry_equiv_pos_site_id
 _symmetry_equiv_pos_as_xyz
  1  'x, y, z'
loop_
 _atom_site_type_symbol
 _atom_site_label
 _atom_site_symmetry_multiplicity
 _atom_site_fract_x
 _atom_site_fract_y
 _atom_site_fract_z
 _atom_site_occupancy
  Rh  Rh0  1  0.649672  0.649672  0.649672  1
  Rh  Rh1  1  0.850328  0.850328  0.850328  1
  Rh  Rh2  1  0.149672  0.149672  0.149672  1
  Rh  Rh3  1  0.350328  0.350328  0.350328  1
  S  S4  1  0.250000  0.549487  0.950513  1
  S  S5  1  0.950513  0.250000  0.549487  1
  S  S6  1  0.549487  0.950513  0.250000  1
  S  S7  1  0.450513  0.049487  0.750000  1
  S  S8  1  0.049487  0.750000  0.450513  1
  S  S9  1  0.750000  0.450513  0.049487  1
