# generated using pymatgen
data_AgPbO2
_symmetry_space_group_name_H-M   'P 1'
_cell_length_a   6.75842143
_cell_length_b   6.75842143
_cell_length_c   6.50055919
_cell_angle_alpha   81.88709774
_cell_angle_beta   98.11290226
_cell_angle_gamma   149.45449238
_symmetry_Int_Tables_number   1
_chemical_formula_structural   AgPbO2
_chemical_formula_sum   'Ag2 Pb2 O4'
_cell_volume   149.27860964
_cell_formula_units_Z   2
loop_
 _symmetry_equiv_pos_site_id
 _symmetry_equiv_pos_as_xyz
  1  'x, y, z'
loop_
 _atom_site_type_symbol
 _atom_site_label
 _atom_site_symmetry_multiplicity
 _atom_site_fract_x
 _atom_site_fract_y
 _atom_site_fract_z
 _atom_site_occupancy
  Ag  Ag0  1  0.250320  0.749680  0.195327  1
  Ag  Ag1  1  0.749680  0.250320  0.804673  1
  Pb  Pb2  1  0.500000  0.500000  0.000000  1
  Pb  Pb3  1  0.000000  0.000000  0.500000  1
  O  O4  1  0.087640  0.912360  0.170379  1
  O  O5  1  0.587604  0.412396  0.737937  1
  O  O6  1  0.412396  0.587604  0.262063  1
  O  O7  1  0.912360  0.087640  0.829621  1
