# generated using pymatgen
data_HoGa3
_symmetry_space_group_name_H-M   'P 1'
_cell_length_a   12.40193663
_cell_length_b   12.40193663
_cell_length_c   12.40193663
_cell_angle_alpha   28.42414386
_cell_angle_beta   28.42414386
_cell_angle_gamma   28.42414386
_symmetry_Int_Tables_number   1
_chemical_formula_structural   HoGa3
_chemical_formula_sum   'Ho5 Ga15'
_cell_volume   381.95338320
_cell_formula_units_Z   5
loop_
 _symmetry_equiv_pos_site_id
 _symmetry_equiv_pos_as_xyz
  1  'x, y, z'
loop_
 _atom_site_type_symbol
 _atom_site_label
 _atom_site_symmetry_multiplicity
 _atom_site_fract_x
 _atom_site_fract_y
 _atom_site_fract_z
 _atom_site_occupancy
  Ho  Ho0  1  0.869334  0.869334  0.869334  1
  Ho  Ho1  1  0.130666  0.130666  0.130666  1
  Ho  Ho2  1  0.599984  0.599984  0.599984  1
  Ho  Ho3  1  0.400016  0.400016  0.400016  1
  Ho  Ho4  1  0.000000  0.000000  0.000000  1
  Ga  Ga5  1  0.563282  0.119216  0.119216  1
  Ga  Ga6  1  0.119216  0.563282  0.119216  1
  Ga  Ga7  1  0.119216  0.119216  0.563282  1
  Ga  Ga8  1  0.880784  0.880784  0.436718  1
  Ga  Ga9  1  0.880784  0.436718  0.880784  1
  Ga  Ga10  1  0.436718  0.880784  0.880784  1
  Ga  Ga11  1  0.867644  0.364965  0.364965  1
  Ga  Ga12  1  0.364965  0.867644  0.364965  1
  Ga  Ga13  1  0.364965  0.364965  0.867644  1
  Ga  Ga14  1  0.635035  0.635035  0.132356  1
  Ga  Ga15  1  0.635035  0.132356  0.635035  1
  Ga  Ga16  1  0.132356  0.635035  0.635035  1
  Ga  Ga17  1  0.500000  0.000000  0.500000  1
  Ga  Ga18  1  0.500000  0.500000  0.000000  1
  Ga  Ga19  1  0.000000  0.500000  0.500000  1
