# generated using pymatgen
data_PmDy3
_symmetry_space_group_name_H-M   'P 1'
_cell_length_a   6.19199866
_cell_length_b   6.19199866
_cell_length_c   6.19199866
_cell_angle_alpha   131.74994018
_cell_angle_beta   131.74994018
_cell_angle_gamma   70.62425706
_symmetry_Int_Tables_number   1
_chemical_formula_structural   PmDy3
_chemical_formula_sum   'Pm1 Dy3'
_cell_volume   129.45599025
_cell_formula_units_Z   1
loop_
 _symmetry_equiv_pos_site_id
 _symmetry_equiv_pos_as_xyz
  1  'x, y, z'
loop_
 _atom_site_type_symbol
 _atom_site_label
 _atom_site_symmetry_multiplicity
 _atom_site_fract_x
 _atom_site_fract_y
 _atom_site_fract_z
 _atom_site_occupancy
  Pm  Pm0  1  0.000000  0.000000  0.000000  1
  Dy  Dy1  1  0.250000  0.750000  0.500000  1
  Dy  Dy2  1  0.750000  0.250000  0.500000  1
  Dy  Dy3  1  0.500000  0.500000  0.000000  1
