# generated using pymatgen
data_CaTlCl3
_symmetry_space_group_name_H-M   'P 1'
_cell_length_a   5.40007409
_cell_length_b   5.40007409
_cell_length_c   5.39768024
_cell_angle_alpha   89.98658137
_cell_angle_beta   90.01341863
_cell_angle_gamma   89.97612271
_symmetry_Int_Tables_number   1
_chemical_formula_structural   CaTlCl3
_chemical_formula_sum   'Ca1 Tl1 Cl3'
_cell_volume   157.40065235
_cell_formula_units_Z   1
loop_
 _symmetry_equiv_pos_site_id
 _symmetry_equiv_pos_as_xyz
  1  'x, y, z'
loop_
 _atom_site_type_symbol
 _atom_site_label
 _atom_site_symmetry_multiplicity
 _atom_site_fract_x
 _atom_site_fract_y
 _atom_site_fract_z
 _atom_site_occupancy
  Ca  Ca0  1  0.505417  0.494583  0.515352  1
  Tl  Tl1  1  0.007814  0.992186  0.997304  1
  Cl  Cl2  1  0.503313  0.995240  0.518257  1
  Cl  Cl3  1  0.492979  0.507021  0.015365  1
  Cl  Cl4  1  0.004760  0.496687  0.518257  1
