# generated using pymatgen
data_AgHgO2
_symmetry_space_group_name_H-M   'P 1'
_cell_length_a   4.06749983
_cell_length_b   5.45938000
_cell_length_c   5.94371018
_cell_angle_alpha   92.11358593
_cell_angle_beta   95.11259818
_cell_angle_gamma   90.52818514
_symmetry_Int_Tables_number   1
_chemical_formula_structural   AgHgO2
_chemical_formula_sum   'Ag2 Hg2 O4'
_cell_volume   131.36127812
_cell_formula_units_Z   2
loop_
 _symmetry_equiv_pos_site_id
 _symmetry_equiv_pos_as_xyz
  1  'x, y, z'
loop_
 _atom_site_type_symbol
 _atom_site_label
 _atom_site_symmetry_multiplicity
 _atom_site_fract_x
 _atom_site_fract_y
 _atom_site_fract_z
 _atom_site_occupancy
  Ag  Ag0  1  0.500000  0.000000  0.000000  1
  Ag  Ag1  1  0.500000  0.500000  0.500000  1
  Hg  Hg2  1  0.000000  0.000000  0.500000  1
  Hg  Hg3  1  0.000000  0.500000  0.000000  1
  O  O4  1  0.701770  0.716380  0.790780  1
  O  O5  1  0.660870  0.788110  0.293470  1
  O  O6  1  0.298230  0.283620  0.209220  1
  O  O7  1  0.339130  0.211890  0.706530  1
